@<TRIPOS>MOLECULE
ZINC29122825
 34 38 0 0 0
SMALL
GASTEIGER

@<TRIPOS>ATOM
      1 N          20.0951   38.4143   30.0968 N.ar    1  UNL1       -0.2449
      2 C          18.7551   38.3546   30.1421 C.ar    1  UNL1        0.0970
      3 C          18.3455   38.9155   31.3380 C.ar    1  UNL1        0.0388
      4 C          19.5671   39.3421   32.0333 C.ar    1  UNL1        0.1083
      5 N          20.5806   39.0233   31.2571 N.ar    1  UNL1       -0.1684
      6 C          19.6432   40.0019   33.3519 C.ar    1  UNL1        0.0488
      7 C          20.6179   39.9065   34.3102 C.ar    1  UNL1        0.0086
      8 C          20.4718   40.6244   35.4765 C.ar    1  UNL1        0.0075
      9 C          19.3708   41.4022   35.6413 C.ar    1  UNL1        0.0355
     10 S          18.4929   41.1378   34.1096 S.2     1  UNL1       -0.0849
     11 C          16.9663   39.0610   31.8142 C.2     1  UNL1        0.0098
     12 C          15.9440   39.0917   30.9278 C.2     1  UNL1        0.0820
     13 C          14.6135   39.2320   31.3873 C.2     1  UNL1        0.3419
     14 O          14.1527   40.3402   31.5879 O.2     1  UNL1       -0.2449
     15 O          13.8551   38.1366   31.6033 O.3     1  UNL1       -0.4350
     16 C          12.5402   38.1373   31.0437 C.3     1  UNL1        0.2957
     17 C          12.6185   37.8017   29.5766 C.ar    1  UNL1        0.2812
     18 N          11.7206   38.0825   28.6654 N.ar    1  UNL1       -0.1876
     19 C          12.2164   37.5964   27.5050 C.ar    1  UNL1        0.2049
     20 N          13.3709   37.0468   27.7788 N.ar    1  UNL1       -0.0558
     21 O          13.6148   37.1566   28.9618 O.2     1  UNL1       -0.3331
     22 C          11.5684   37.6673   26.1716 C.ar    1  UNL1        0.0582
     23 C          10.6869   36.6655   25.7564 C.ar    1  UNL1        0.0063
     24 C          10.1038   36.7808   24.5063 C.ar    1  UNL1        0.0208
     25 C          10.4184   37.8677   23.7109 C.ar    1  UNL1        0.0989
     26 N          11.2585   38.7950   24.1281 N.ar    1  UNL1       -0.2422
     27 C          11.8334   38.7305   25.3118 C.ar    1  UNL1        0.1020
     28 C          20.9238   37.9209   28.9940 C.3     1  UNL1        0.1538
     29 C          24.0905   40.6883   28.2449 C.ar    1  UNL1       -0.0000
     30 C          24.3793   39.3625   28.5089 C.ar    1  UNL1       -0.0003
     31 C          23.3543   38.4659   28.7463 C.ar    1  UNL1       -0.0023
     32 C          22.0410   38.8971   28.7294 C.ar    1  UNL1        0.0021
     33 C          21.7524   40.2237   28.4694 C.ar    1  UNL1       -0.0023
     34 C          22.7772   41.1194   28.2272 C.ar    1  UNL1       -0.0003
@<TRIPOS>BOND
     1    29    34   ar
     2    29    30   ar
     3    30    31   ar
     4    31    32   ar
     5    32    33   ar
     6    32    28    1
     7    33    34   ar
     8    28     1    1
     9     1     5   ar
    10     1     2   ar
    11     2     3   ar
    12     3     4   ar
    13     3    11    1
    14     4     5   ar
    15     4     6    1
    16     6    10   ar
    17     6     7   ar
    18     7     8   ar
    19     8     9   ar
    20     9    10   ar
    21    11    12    2
    22    12    13    1
    23    13    14    2
    24    13    15    1
    25    15    16    1
    26    16    17    1
    27    17    21   ar
    28    17    18   ar
    29    18    19   ar
    30    19    20   ar
    31    19    22    1
    32    20    21   ar
    33    22    27   ar
    34    22    23   ar
    35    23    24   ar
    36    24    25   ar
    37    25    26   ar
    38    26    27   ar
@<TRIPOS>MOLECULE
ZINC08384416
 34 37 0 0 0
SMALL
GASTEIGER

@<TRIPOS>ATOM
      1 C          26.7654   34.0681   27.5219 C.3     1  UNL1        0.0000
      2 C          26.5851   35.5916   27.7451 C.3     1  UNL1        0.0000
      3 C          26.9803   36.2785   26.4062 C.3     1  UNL1        0.0000
      4 C          26.7978   35.1300   25.3996 C.3     1  UNL1        0.0000
      5 C          27.4689   33.9637   26.1515 C.3     1  UNL1        0.0000
      6 C          27.2725   32.6518   25.4369 C.3     1  UNL1        0.0000
      7 C          27.2296   32.8495   23.9136 C.3     1  UNL1        0.0000
      8 C          28.0340   34.0759   23.5093 C.3     1  UNL1        0.0004
      9 C          27.3378   35.3411   24.0208 C.3     1  UNL1        0.0000
     10 C          28.2907   36.5217   23.8772 C.3     1  UNL1        0.0000
     11 C          28.6830   36.6428   22.3980 C.3     1  UNL1        0.0005
     12 C          27.9124   35.6268   21.5591 C.3     1  UNL1        0.0079
     13 C          28.2228   34.1914   21.9965 C.3     1  UNL1        0.0062
     14 C          27.2490   33.2577   21.2714 C.3     1  UNL1        0.0537
     15 C          27.2814   33.5410   19.7962 C.2     1  UNL1        0.1506
     16 C          27.7253   34.6494   19.2775 C.2     1  UNL1        0.1440
     17 C          28.2663   35.7962   20.0801 C.3     1  UNL1        0.0660
     18 C          29.6635   33.8108   21.6416 C.3     1  UNL1        0.0004
     19 C          28.9587   34.2158   26.4080 C.3     1  UNL1        0.0000
     20 N          26.7788   32.4944   18.8785 N.pl3   1  UNL1        0.0563
     21 O          27.5367   31.6394   18.4563 O.2     1  UNL1       -0.1263
     22 O          25.6072   32.4880   18.5453 O.2     1  UNL1       -0.1263
     23 C          27.6576   33.4710   28.6077 C.3     1  UNL1        0.0000
     24 C          27.2227   32.0316   28.8905 C.3     1  UNL1        0.0000
     25 C          27.5314   34.3023   29.8859 C.3     1  UNL1        0.0000
     26 C          26.8823   33.4559   30.9828 C.3     1  UNL1        0.0000
     27 C          25.6579   34.1886   31.5351 C.3     1  UNL1        0.0000
     28 C          24.6149   36.3766   30.9295 C.3     1  UNL1        0.0000
     29 C          25.8851   35.6991   31.4478 C.3     1  UNL1        0.0000
     30 C          26.2240   36.2449   32.8364 C.3     1  UNL1        0.0000
     31 O          27.6986   34.7755   17.9264 O.3     1  UNL1       -0.4272
     32 C          28.8697   35.0104   17.3129 C.2     1  UNL1        0.3218
     33 O          29.0086   36.0009   16.6350 O.2     1  UNL1       -0.2497
     34 C          30.0107   34.0385   17.4697 C.3     1  UNL1        0.1216
@<TRIPOS>BOND
     1    28    29    1
     2    29    30    1
     3    29    27    1
     4    27    26    1
     5    26    25    1
     6    25    23    1
     7    23    24    1
     8    23     1    1
     9     1     5    1
    10     1     2    1
    11     2     3    1
    12     3     4    1
    13     4     9    1
    14     4     5    1
    15     5     6    1
    16     5    19    1
    17     6     7    1
    18     7     8    1
    19     8    13    1
    20     8     9    1
    21     9    10    1
    22    10    11    1
    23    11    12    1
    24    12    17    1
    25    12    13    1
    26    13    14    1
    27    13    18    1
    28    14    15    1
    29    15    16    2
    30    15    20    1
    31    16    17    1
    32    16    31    1
    33    31    32    1
    34    32    33    2
    35    32    34    1
    36    20    21    2
    37    20    22    2
@<TRIPOS>MOLECULE
ZINC15776150
 35 40 0 0 0
SMALL
GASTEIGER

@<TRIPOS>ATOM
      1 C          22.5692   39.9304   28.7133 C.3     1  UNL1        0.1108
      2 C          23.9343   39.9145   28.0228 C.3     1  UNL1        0.2272
      3 C          24.5407   45.0744   28.8863 C.ar    1  UNL1        0.0017
      4 C          23.4670   44.4554   28.2589 C.ar    1  UNL1        0.0016
      5 C          23.4417   43.0980   28.1020 C.ar    1  UNL1        0.0205
      6 C          24.4991   42.3276   28.5739 C.ar    1  UNL1        0.1013
      7 C          25.5883   42.9479   29.2102 C.ar    1  UNL1        0.1218
      8 C          25.5898   44.3414   29.3584 C.ar    1  UNL1        0.0225
      9 N          26.4593   41.9821   29.5645 N.ar    1  UNL1       -0.1287
     10 N          26.0153   40.8281   29.2098 N.ar    1  UNL1       -0.0618
     11 N          24.7735   40.9808   28.5752 N.ar    1  UNL1       -0.2064
     12 O          23.7610   40.1234   26.6198 O.3     1  UNL1       -0.3368
     13 C          24.5030   39.2170   25.8012 C.3     1  UNL1        0.1173
     14 C          24.5971   37.8591   26.4997 C.3     1  UNL1        0.0296
     15 C          25.3915   36.8887   25.6231 C.3     1  UNL1        0.0025
     16 C          26.7989   37.4433   25.3944 C.3     1  UNL1        0.0002
     17 C          26.7047   38.8013   24.6959 C.3     1  UNL1        0.0025
     18 C          25.9104   39.7717   25.5724 C.3     1  UNL1        0.0296
     19 C          22.3329   38.5875   29.4072 C.3     1  UNL1        0.2272
     20 N          20.9627   38.5389   29.9232 N.ar    1  UNL1       -0.2064
     21 C          20.5474   38.8815   31.1880 C.ar    1  UNL1        0.1013
     22 C          21.1973   39.3504   32.3248 C.ar    1  UNL1        0.0205
     23 C          20.4811   39.6041   33.4607 C.ar    1  UNL1        0.0016
     24 C          19.1078   39.3983   33.4912 C.ar    1  UNL1        0.0017
     25 C          18.4458   38.9457   32.3876 C.ar    1  UNL1        0.0225
     26 C          19.1574   38.6735   31.2114 C.ar    1  UNL1        0.1218
     27 N          18.7914   38.2170   29.9971 N.ar    1  UNL1       -0.1287
     28 N          19.8171   38.1276   29.2257 N.ar    1  UNL1       -0.0618
     29 O          23.2548   38.4417   30.4893 O.3     1  UNL1       -0.3368
     30 C          23.9496   37.1930   30.4966 C.3     1  UNL1        0.1173
     31 C          24.2490   36.7845   31.9404 C.3     1  UNL1        0.0296
     32 C          24.9930   35.4476   31.9483 C.3     1  UNL1        0.0025
     33 C          26.3059   35.5899   31.1757 C.3     1  UNL1        0.0002
     34 C          26.0064   35.9984   29.7320 C.3     1  UNL1        0.0025
     35 C          25.2626   37.3354   29.7241 C.3     1  UNL1        0.0296
@<TRIPOS>BOND
     1     3     8   ar
     2     3     4   ar
     3     4     5   ar
     4     5     6   ar
     5     6    11   ar
     6     6     7   ar
     7     7     8   ar
     8     7     9   ar
     9     9    10   ar
    10    10    11   ar
    11    11     2    1
    12     2     1    1
    13     2    12    1
    14     1    19    1
    15    19    20    1
    16    19    29    1
    17    20    28   ar
    18    20    21   ar
    19    21    26   ar
    20    21    22   ar
    21    22    23   ar
    22    23    24   ar
    23    24    25   ar
    24    25    26   ar
    25    26    27   ar
    26    27    28   ar
    27    29    30    1
    28    30    35    1
    29    30    31    1
    30    31    32    1
    31    32    33    1
    32    33    34    1
    33    34    35    1
    34    12    13    1
    35    13    18    1
    36    13    14    1
    37    14    15    1
    38    15    16    1
    39    16    17    1
    40    17    18    1
@<TRIPOS>MOLECULE
ZINC27186178
 29 31 0 0 0
SMALL
GASTEIGER

@<TRIPOS>ATOM
      1 C          21.0778   37.4969   28.3650 C.2     1  UNL1        0.3290
      2 O          20.4565   36.5240   28.0083 O.2     1  UNL1       -0.2491
      3 O          22.4127   37.5286   28.2272 O.3     1  UNL1       -0.4377
      4 C          23.1866   37.9168   29.3928 C.3     1  UNL1        0.2926
      5 N          25.3182   36.8056   29.9763 N.am    1  UNL1       -0.2719
      6 C          24.6449   37.6272   29.1467 C.2     1  UNL1        0.2705
      7 O          25.2127   38.1334   28.2021 O.2     1  UNL1       -0.2708
      8 C          25.5575   36.2079   32.3358 C.3     1  UNL1        0.0233
      9 C          24.6322   36.1941   31.1174 C.3     1  UNL1        0.0939
     10 C          26.7358   36.5240   29.7371 C.3     1  UNL1        0.1267
     11 C          26.8673   35.2570   28.9318 C.ar    1  UNL1        0.0281
     12 C          26.9835   33.9786   29.3658 C.ar    1  UNL1        0.0053
     13 C          27.0924   32.9616   28.4353 C.ar    1  UNL1        0.0182
     14 C          27.0795   33.2747   27.1153 C.ar    1  UNL1        0.0867
     15 S          26.9025   35.0506   27.1590 S.2     1  UNL1       -0.0782
     16 CL         27.1972   32.2211   25.7407 Cl      1  UNL1       -0.0752
     17 C          20.3542   38.6751   28.9646 C.3     1  UNL1        0.1728
     18 S          20.3006   38.4975   30.7651 S.3     1  UNL1       -0.0829
     19 C          18.5931   38.8226   31.0540 C.ar    1  UNL1        0.1105
     20 C          18.1813   39.5302   32.2179 C.ar    1  UNL1        0.0436
     21 C          18.9784   40.0905   33.2948 C.ar    1  UNL1       -0.0159
     22 C          18.3632   40.7316   34.2997 C.ar    1  UNL1        0.0052
     23 S          16.6378   40.6351   33.8607 S.2     1  UNL1       -0.0726
     24 C          16.7900   39.7361   32.3398 C.ar    1  UNL1        0.1138
     25 N          15.9459   39.2861   31.4320 N.ar    1  UNL1       -0.2173
     26 C          16.3879   38.6314   30.3758 C.ar    1  UNL1        0.1998
     27 N          17.6768   38.4069   30.1937 N.ar    1  UNL1       -0.2176
     28 C          18.9828   41.3795   35.5110 C.3     1  UNL1        0.0379
     29 C          20.4785   39.9477   33.2868 C.3     1  UNL1        0.0314
@<TRIPOS>BOND
     1     8     9    1
     2     9     5    1
     3     5    10    1
     4     5     6   am
     5    10    11    1
     6    11    15   ar
     7    11    12   ar
     8    12    13   ar
     9    13    14   ar
    10    14    15   ar
    11    14    16    1
    12     6     7    2
    13     6     4    1
    14     4     3    1
    15     3     1    1
    16     1     2    2
    17     1    17    1
    18    17    18    1
    19    18    19    1
    20    19    27   ar
    21    19    20   ar
    22    20    24   ar
    23    20    21   ar
    24    21    22   ar
    25    21    29    1
    26    22    23   ar
    27    22    28    1
    28    23    24   ar
    29    24    25   ar
    30    25    26   ar
    31    26    27   ar
@<TRIPOS>MOLECULE
ZINC23905866
 33 36 0 0 0
SMALL
GASTEIGER

@<TRIPOS>ATOM
      1 C          21.2161   38.8951   28.2178 C.ar    1  UNL1        0.1974
      2 N          20.4665   38.1397   27.4489 N.ar    1  UNL1       -0.1220
      3 N          21.1542   37.7123   26.4509 N.ar    1  UNL1       -0.1286
      4 C          22.3768   38.1571   26.5250 C.ar    1  UNL1        0.1922
      5 N          22.4610   38.9305   27.6522 N.ar    1  UNL1       -0.2672
      6 C          23.5894   39.6161   28.1279 C.ar    1  UNL1        0.0944
      7 C          23.7163   40.9808   27.9116 C.ar    1  UNL1        0.0199
      8 C          24.8280   41.6533   28.3809 C.ar    1  UNL1        0.0016
      9 C          25.8147   40.9687   29.0664 C.ar    1  UNL1        0.0024
     10 C          25.6931   39.6089   29.2841 C.ar    1  UNL1        0.0311
     11 C          24.5797   38.9304   28.8217 C.ar    1  UNL1        0.1562
     12 F          24.4576   37.6028   29.0395 F       1  UNL1       -0.2026
     13 S          20.7139   39.7089   29.6977 S.3     1  UNL1       -0.0653
     14 C          19.9344   38.3263   30.5676 C.3     1  UNL1        0.1528
     15 C          16.6263   39.2253   31.6341 C.ar    1  UNL1        0.1797
     16 N          17.9417   39.1139   31.8916 N.ar    1  UNL1       -0.1942
     17 C          18.4766   38.6336   30.7951 C.ar    1  UNL1        0.2477
     18 O          17.4813   38.4631   29.9196 O.2     1  UNL1       -0.3364
     19 N          16.4310   38.8075   30.4192 N.ar    1  UNL1       -0.0606
     20 C          15.5972   41.2653   32.5978 C.3     1  UNL1        0.0077
     21 C          15.5718   39.7356   32.5822 C.3     1  UNL1        0.0557
     22 C          14.1951   39.2530   32.1212 C.3     1  UNL1        0.0077
     23 C          15.8529   39.2065   33.9900 C.3     1  UNL1        0.0077
     24 C          23.4898   37.8778   25.5483 C.3     1  UNL1        0.2706
     25 O          23.6112   38.9730   24.6385 O.3     1  UNL1       -0.4673
     26 C          24.6972   39.7785   24.7834 C.ar    1  UNL1        0.1394
     27 C          24.6415   41.0998   24.3653 C.ar    1  UNL1        0.0400
     28 C          25.7463   41.9165   24.5077 C.ar    1  UNL1        0.0400
     29 C          26.9117   41.4151   25.0682 C.ar    1  UNL1        0.1389
     30 C          26.9675   40.0938   25.4865 C.ar    1  UNL1        0.0400
     31 C          25.8625   39.2773   25.3444 C.ar    1  UNL1        0.0400
     32 O          27.9995   42.2190   25.2081 O.3     1  UNL1       -0.4714
     33 C          28.6423   42.2245   26.4844 C.3     1  UNL1        0.2525
@<TRIPOS>BOND
     1    20    21    1
     2    21    22    1
     3    21    23    1
     4    21    15    1
     5    15    19   ar
     6    15    16   ar
     7    16    17   ar
     8    17    18   ar
     9    17    14    1
    10    18    19   ar
    11    14    13    1
    12    13     1    1
    13     1     5   ar
    14     1     2   ar
    15     2     3   ar
    16     3     4   ar
    17     4     5   ar
    18     4    24    1
    19     5     6    1
    20     6    11   ar
    21     6     7   ar
    22     7     8   ar
    23     8     9   ar
    24     9    10   ar
    25    10    11   ar
    26    11    12    1
    27    24    25    1
    28    25    26    1
    29    26    31   ar
    30    26    27   ar
    31    27    28   ar
    32    28    29   ar
    33    29    30   ar
    34    29    32    1
    35    30    31   ar
    36    32    33    1
@<TRIPOS>MOLECULE
ZINC12589627
 34 38 0 0 0
SMALL
GASTEIGER

@<TRIPOS>ATOM
      1 N          24.7429   39.4650   26.9077 N.ar    1  UNL1       -0.2576
      2 C          25.6266   38.4853   27.2709 C.ar    1  UNL1        0.2262
      3 N          25.4965   38.2801   28.5584 N.ar    1  UNL1       -0.1119
      4 N          24.5062   39.1466   29.0389 N.ar    1  UNL1       -0.1205
      5 C          24.0617   39.8550   28.0295 C.ar    1  UNL1        0.1980
      6 C          25.2428   41.1260   25.2239 C.ar    1  UNL1       -0.0059
      7 C          25.0709   41.6269   23.9479 C.ar    1  UNL1       -0.0028
      8 C          24.2173   40.9930   23.0642 C.ar    1  UNL1       -0.0002
      9 C          23.5378   39.8527   23.4525 C.ar    1  UNL1        0.0015
     10 C          23.7098   39.3444   24.7250 C.ar    1  UNL1        0.0173
     11 C          24.5662   39.9789   25.6147 C.ar    1  UNL1        0.0644
     12 C          27.6133   41.4163   25.8913 C.3     1  UNL1        0.0051
     13 C          26.1683   41.8214   26.1888 C.3     1  UNL1        0.0278
     14 N          26.5068   37.8247   26.4236 N.pl3   1  UNL1       -0.2729
     15 C          26.0226   36.4721   26.1115 C.3     1  UNL1        0.1257
     16 C          26.9894   35.8035   25.1307 C.3     1  UNL1        0.1637
     17 O          28.3025   35.7911   25.6970 O.3     1  UNL1       -0.3501
     18 C          28.8056   37.0922   26.0126 C.3     1  UNL1        0.1637
     19 C          27.8572   37.7739   27.0025 C.3     1  UNL1        0.1257
     20 S          22.8128   41.0957   28.1045 S.3     1  UNL1       -0.0753
     21 C          21.2920   40.1675   28.4457 C.3     1  UNL1        0.0657
     22 C          21.3720   38.7938   27.7769 C.3     1  UNL1        0.0219
     23 C          21.1615   37.7019   28.8278 C.3     1  UNL1        0.0890
     24 C          20.3085   38.2402   29.9475 C.ar    1  UNL1        0.2366
     25 N          20.7350   38.8359   31.0331 N.ar    1  UNL1       -0.1907
     26 C          19.6237   39.1429   31.7395 C.ar    1  UNL1        0.2033
     27 N          18.5976   38.7198   31.0480 N.ar    1  UNL1       -0.0560
     28 O          18.9740   38.2049   30.0164 O.2     1  UNL1       -0.3370
     29 C          19.5771   39.8311   33.0537 C.ar    1  UNL1        0.0391
     30 C          20.6459   39.7182   33.9403 C.ar    1  UNL1        0.0032
     31 C          20.5993   40.3643   35.1591 C.ar    1  UNL1        0.0001
     32 C          19.4898   41.1142   35.5052 C.ar    1  UNL1        0.0000
     33 C          18.4237   41.2254   34.6309 C.ar    1  UNL1        0.0001
     34 C          18.4620   40.5879   33.4074 C.ar    1  UNL1        0.0032
@<TRIPOS>BOND
     1    12    13    1
     2    13     6    1
     3     6    11   ar
     4     6     7   ar
     5     7     8   ar
     6     8     9   ar
     7     9    10   ar
     8    10    11   ar
     9    11     1    1
    10     1     5   ar
    11     1     2   ar
    12     2     3   ar
    13     2    14    1
    14     3     4   ar
    15     4     5   ar
    16     5    20    1
    17    20    21    1
    18    21    22    1
    19    22    23    1
    20    23    24    1
    21    24    28   ar
    22    24    25   ar
    23    25    26   ar
    24    26    27   ar
    25    26    29    1
    26    27    28   ar
    27    29    34   ar
    28    29    30   ar
    29    30    31   ar
    30    31    32   ar
    31    32    33   ar
    32    33    34   ar
    33    14    19    1
    34    14    15    1
    35    15    16    1
    36    16    17    1
    37    17    18    1
    38    18    19    1
@<TRIPOS>MOLECULE
ZINC31478592
 32 34 0 0 0
SMALL
GASTEIGER

@<TRIPOS>ATOM
      1 O          11.7874   37.2819   26.7768 O.3     1  UNL1       -0.4365
      2 C          12.8361   36.7417   27.4302 C.2     1  UNL1        0.3475
      3 O          13.2664   35.6550   27.0953 O.2     1  UNL1       -0.2443
      4 C          13.4581   37.4656   28.5457 C.ar    1  UNL1        0.1025
      5 C          12.8672   37.9742   29.6601 C.ar    1  UNL1       -0.0076
      6 C          13.6450   38.6404   30.6220 C.ar    1  UNL1        0.0206
      7 C          13.2243   39.2357   31.8405 C.ar    1  UNL1        0.0032
      8 C          14.1511   39.8379   32.6393 C.ar    1  UNL1        0.0231
      9 C          15.4885   39.8711   32.2707 C.ar    1  UNL1        0.1531
     10 N          15.8834   39.3192   31.1395 N.ar    1  UNL1       -0.2349
     11 C          15.0296   38.7271   30.3356 C.ar    1  UNL1        0.1105
     12 S          15.1761   37.8878   28.7766 S.2     1  UNL1       -0.0619
     13 C          11.3813   37.8239   29.8625 C.3     1  UNL1        0.0318
     14 C          16.4962   40.5414   33.1686 C.3     1  UNL1        0.4349
     15 F          16.1987   41.9048   33.2676 F       1  UNL1       -0.1644
     16 F          16.4472   39.9600   34.4402 F       1  UNL1       -0.1644
     17 F          17.7781   40.3816   32.6318 F       1  UNL1       -0.1644
     18 C          10.7810   36.3645   26.2730 C.3     1  UNL1        0.2770
     19 C           9.7511   37.1321   25.4849 C.2     1  UNL1        0.2181
     20 O           8.6486   36.6584   25.3041 O.2     1  UNL1       -0.2873
     21 C          10.4181   42.1593   24.9910 C.3     1  UNL1        0.0500
     22 C          10.3693   40.6748   24.7359 C.ar    1  UNL1        0.0373
     23 C           9.9546   39.7470   25.6147 C.ar    1  UNL1        0.0168
     24 C          10.0807   38.4498   24.9371 C.ar    1  UNL1        0.0512
     25 C          10.5687   38.7286   23.6744 C.ar    1  UNL1        0.0400
     26 N          10.7396   40.0590   23.5755 N.ar    1  UNL1       -0.3332
     27 C          10.8625   37.7170   22.5968 C.3     1  UNL1        0.0501
     28 C          11.2460   40.7503   22.3874 C.3     1  UNL1        0.1145
     29 C          12.5970   41.3929   22.7082 C.3     1  UNL1        0.0271
     30 C          10.2525   41.8350   21.9662 C.3     1  UNL1        0.1646
     31 O          10.1987   41.9038   20.5399 O.3     1  UNL1       -0.3491
     32 C          10.8812   43.0306   19.9862 C.3     1  UNL1        0.1742
@<TRIPOS>BOND
     1    21    22    1
     2    22    26   ar
     3    22    23   ar
     4    23    24   ar
     5    24    25   ar
     6    24    19    1
     7    25    26   ar
     8    25    27    1
     9    26    28    1
    10    28    29    1
    11    28    30    1
    12    30    31    1
    13    31    32    1
    14    19    20    2
    15    19    18    1
    16    18     1    1
    17     1     2    1
    18     2     3    2
    19     2     4    1
    20     4    12   ar
    21     4     5   ar
    22     5     6   ar
    23     5    13    1
    24     6    11   ar
    25     6     7   ar
    26     7     8   ar
    27     8     9   ar
    28     9    10   ar
    29     9    14    1
    30    10    11   ar
    31    11    12   ar
    32    14    15    1
    33    14    16    1
    34    14    17    1
@<TRIPOS>MOLECULE
ZINC23452795
 33 36 0 0 0
SMALL
GASTEIGER

@<TRIPOS>ATOM
      1 C          15.2729   38.9301   31.4352 C.ar    1  UNL1        0.1238
      2 C          15.6839   39.3315   32.6977 C.ar    1  UNL1        0.0215
      3 C          17.0268   39.4540   32.9893 C.ar    1  UNL1        0.0201
      4 C          17.9732   39.1630   32.0187 C.ar    1  UNL1        0.0792
      5 C          17.5629   38.7505   30.7403 C.ar    1  UNL1        0.1005
      6 C          16.1989   38.6371   30.4592 C.ar    1  UNL1        0.0405
      7 N          18.6874   38.5383   30.0078 N.ar    1  UNL1       -0.2211
      8 C          19.7442   38.7896   30.7410 C.ar    1  UNL1        0.1715
      9 N          19.3583   39.1795   31.9925 N.ar    1  UNL1       -0.3084
     10 C          20.2441   39.5456   33.1004 C.3     1  UNL1        0.0874
     11 C          19.9202   38.6885   34.3414 C.3     1  UNL1        0.0226
     12 C          20.1034   39.6621   35.5330 C.3     1  UNL1        0.0020
     13 C          19.5452   40.9950   34.9752 C.3     1  UNL1        0.0020
     14 C          20.0062   41.0116   33.5031 C.3     1  UNL1        0.0226
     15 S          13.5530   38.7868   31.0799 S.O2    1  UNL1        0.0634
     16 O          12.9845   38.0156   32.1294 O.2     1  UNL1       -0.1528
     17 O          13.0943   40.0930   30.7598 O.2     1  UNL1       -0.1528
     18 N          13.4119   37.8838   29.6990 N.3     1  UNL1       -0.1540
     19 C          14.5624   37.1284   29.1970 C.3     1  UNL1        0.1149
     20 C          12.1366   37.8404   28.9794 C.3     1  UNL1        0.0959
     21 C          12.3892   37.4735   27.5156 C.3     1  UNL1        0.0191
     22 C          10.6917   36.6928   25.8569 C.3     1  UNL1        0.0000
     23 C          11.4748   36.3138   27.1154 C.3     1  UNL1        0.0015
     24 S          21.4131   38.6460   30.1948 S.3     1  UNL1       -0.0725
     25 C          21.2391   39.2387   28.4934 C.3     1  UNL1        0.0913
     26 C          22.0859   40.4704   28.3015 C.ar    1  UNL1       -0.0109
     27 C          21.6140   41.7023   28.7190 C.ar    1  UNL1       -0.0027
     28 C          22.3859   42.8332   28.5508 C.ar    1  UNL1        0.0100
     29 C          23.6415   42.7342   27.9480 C.ar    1  UNL1        0.0684
     30 C          24.1093   41.4886   27.5243 C.ar    1  UNL1        0.0100
     31 C          23.3292   40.3651   27.7035 C.ar    1  UNL1       -0.0027
     32 C          24.4462   43.9046   27.7656 C.1     1  UNL1        0.1004
     33 N          25.0845   44.8330   27.6209 N.1     1  UNL1       -0.1908
@<TRIPOS>BOND
     1    22    23    1
     2    23    21    1
     3    21    20    1
     4    20    18    1
     5    18    19    1
     6    18    15    1
     7    15    16    2
     8    15    17    2
     9    15     1    1
    10     1     6   ar
    11     1     2   ar
    12     2     3   ar
    13     3     4   ar
    14     4     9   ar
    15     4     5   ar
    16     5     6   ar
    17     5     7   ar
    18     7     8   ar
    19     8     9   ar
    20     8    24    1
    21     9    10    1
    22    10    14    1
    23    10    11    1
    24    11    12    1
    25    12    13    1
    26    13    14    1
    27    24    25    1
    28    25    26    1
    29    26    31   ar
    30    26    27   ar
    31    27    28   ar
    32    28    29   ar
    33    29    30   ar
    34    29    32    1
    35    30    31   ar
    36    32    33    3
@<TRIPOS>MOLECULE
ZINC31556599
 35 38 0 0 0
SMALL
GASTEIGER

@<TRIPOS>ATOM
      1 C          23.5164   49.2575   19.7317 C.3     1  UNL1        0.0164
      2 C          23.3450   48.2079   20.8332 C.3     1  UNL1        0.0615
      3 C          24.2717   48.5472   22.0029 C.3     1  UNL1        0.1075
      4 N          23.9451   49.8830   22.5180 N.4     1  UNL1        0.2952
      5 C          24.1489   50.9126   21.4908 C.3     1  UNL1        0.1075
      6 C          23.2174   50.6448   20.3065 C.3     1  UNL1        0.0615
      7 H          22.9567   49.8861   22.7699 H       1  UNL1        0.2089
      8 C          22.5475   48.9591   18.5858 C.3     1  UNL1        0.0338
      9 C          23.2705   48.2034   17.5006 C.ar    1  UNL1       -0.0218
     10 C          23.4402   46.8356   17.6070 C.ar    1  UNL1       -0.0020
     11 C          24.0986   46.1408   16.6102 C.ar    1  UNL1        0.0293
     12 C          24.5978   46.8169   15.5097 C.ar    1  UNL1        0.1401
     13 C          24.4317   48.1875   15.4068 C.ar    1  UNL1        0.0293
     14 C          23.7683   48.8795   16.4022 C.ar    1  UNL1       -0.0020
     15 F          25.2457   46.1394   14.5369 F       1  UNL1       -0.2042
     16 C          21.3846   48.1133   19.1084 C.3     1  UNL1        0.1139
     17 C          20.1077   48.9093   19.0258 C.2     1  UNL1        0.3173
     18 O          19.3534   48.9410   19.9691 O.2     1  UNL1       -0.2501
     19 O          19.8083   49.5831   17.9041 O.3     1  UNL1       -0.4485
     20 C          20.2737   51.9436   18.2806 C.3     1  UNL1        0.0513
     21 C          19.1890   50.8867   18.0637 C.3     1  UNL1        0.2086
     22 C          24.7218   50.1853   23.7276 C.3     1  UNL1        0.2471
     23 N          23.9753   49.7468   24.9095 N.ar    1  UNL1       -0.1307
     24 C          24.2767   48.7019   25.7092 C.ar    1  UNL1        0.4436
     25 O          25.2229   47.9472   25.5817 O.2     1  UNL1       -0.2208
     26 O          23.3427   48.6494   26.6732 O.2     1  UNL1       -0.3876
     27 C          22.4557   49.6490   26.4766 C.ar    1  UNL1        0.2513
     28 N          22.8069   50.3285   25.4235 N.ar    1  UNL1       -0.1214
     29 C          21.2743   49.9264   27.3220 C.ar    1  UNL1        0.0553
     30 C          20.3307   50.8719   26.9180 C.ar    1  UNL1        0.0070
     31 C          19.2277   51.1222   27.7070 C.ar    1  UNL1        0.0298
     32 C          19.0616   50.4457   28.9051 C.ar    1  UNL1        0.1401
     33 C          19.9987   49.5099   29.3137 C.ar    1  UNL1        0.0298
     34 C          21.1022   49.2476   28.5291 C.ar    1  UNL1        0.0070
     35 F          17.9825   50.6990   29.6773 F       1  UNL1       -0.2042
@<TRIPOS>UNITY_ATOM_ATTR
4 1
charge 1
@<TRIPOS>BOND
     1    20    21    1
     2    21    19    1
     3    19    17    1
     4    17    18    2
     5    17    16    1
     6    16     8    1
     7     8     9    1
     8     8     1    1
     9     9    14   ar
    10     9    10   ar
    11    10    11   ar
    12    11    12   ar
    13    12    13   ar
    14    12    15    1
    15    13    14   ar
    16     1     6    1
    17     1     2    1
    18     2     3    1
    19     3     4    1
    20     4     5    1
    21     4    22    1
    22     5     6    1
    23    22    23    1
    24    23    28   ar
    25    23    24   ar
    26    24    25    2
    27    24    26   ar
    28    26    27   ar
    29    27    28   ar
    30    27    29    1
    31    29    34   ar
    32    29    30   ar
    33    30    31   ar
    34    31    32   ar
    35    32    33   ar
    36    32    35    1
    37    33    34   ar
    38     4     7    1
@<TRIPOS>MOLECULE
ZINC28401222
 34 38 0 0 0
SMALL
GASTEIGER

@<TRIPOS>ATOM
      1 N          24.7986   40.8560   25.8102 N.ar    1  UNL1       -0.2807
      2 C          25.4764   41.7969   26.5481 C.ar    1  UNL1        0.0961
      3 C          25.4104   42.0327   27.9102 C.2     1  UNL1        0.0614
      4 S          26.4623   42.6411   25.3222 S.2     1  UNL1       -0.0648
      5 C          25.9320   41.7106   23.8916 C.ar    1  UNL1        0.0869
      6 C          26.3050   41.8397   22.5928 C.2     1  UNL1        0.0113
      7 C          24.9738   40.7677   24.5024 C.ar    1  UNL1        0.2676
      8 O          24.3765   39.9446   23.8342 O.2     1  UNL1       -0.2664
      9 C          25.8667   40.8492   21.6008 C.ar    1  UNL1        0.0006
     10 C          24.6604   41.0476   20.8987 C.ar    1  UNL1        0.0000
     11 C          24.2332   40.1437   19.9826 C.ar    1  UNL1        0.0000
     12 C          24.9958   38.9893   19.7214 C.ar    1  UNL1        0.0000
     13 C          24.5719   38.0409   18.7765 C.ar    1  UNL1        0.0000
     14 C          25.3298   36.9338   18.5438 C.ar    1  UNL1        0.0000
     15 C          26.5242   36.7238   19.2303 C.ar    1  UNL1        0.0000
     16 C          26.9679   37.6206   20.1530 C.ar    1  UNL1        0.0000
     17 C          26.2116   38.7765   20.4202 C.ar    1  UNL1        0.0000
     18 C          26.6404   39.7199   21.3647 C.ar    1  UNL1        0.0000
     19 C          26.1803   43.0399   28.4791 C.2     1  UNL1        0.1747
     20 O          27.3217   42.8074   28.8323 O.2     1  UNL1       -0.2913
     21 C          25.6022   44.4199   28.6588 C.3     1  UNL1        0.0620
     22 C          25.0239   44.7703   30.0314 C.3     1  UNL1        0.0081
     23 C          24.0878   44.5329   28.8447 C.3     1  UNL1        0.0081
     24 C          23.8660   39.9454   26.4790 C.3     1  UNL1        0.1946
     25 N          24.1980   38.2962   28.2925 N.am    1  UNL1       -0.2780
     26 C          24.6374   38.8293   27.1353 C.2     1  UNL1        0.2488
     27 O          25.6534   38.4110   26.6220 O.2     1  UNL1       -0.2728
     28 C          22.9706   38.8015   28.9124 C.3     1  UNL1        0.0935
     29 C          21.2677   37.4561   27.6745 C.3     1  UNL1        0.0018
     30 C          21.9520   37.6656   29.0268 C.3     1  UNL1        0.0215
     31 C          24.9478   37.2113   28.9303 C.3     1  UNL1        0.0934
     32 C          25.1705   37.5446   30.4068 C.3     1  UNL1        0.0199
     33 C          26.2044   36.7143   31.1704 C.3     1  UNL1        0.0018
     34 C          24.7110   36.5146   31.4408 C.3     1  UNL1        0.0018
@<TRIPOS>BOND
     1    29    30    1
     2    30    28    1
     3    28    25    1
     4    25    31    1
     5    25    26   am
     6    31    32    1
     7    32    34    1
     8    32    33    1
     9    33    34    1
    10    26    27    2
    11    26    24    1
    12    24     1    1
    13     1     7   ar
    14     1     2   ar
    15     2     3    2
    16     2     4   ar
    17     3    19    1
    18    19    20    2
    19    19    21    1
    20    21    23    1
    21    21    22    1
    22    22    23    1
    23     4     5   ar
    24     5     6    2
    25     5     7   ar
    26     6     9    1
    27     9    18   ar
    28     9    10   ar
    29    10    11   ar
    30    11    12   ar
    31    12    17   ar
    32    12    13   ar
    33    13    14   ar
    34    14    15   ar
    35    15    16   ar
    36    16    17   ar
    37    17    18   ar
    38     7     8    2
@<TRIPOS>MOLECULE
ZINC08871146
 36 40 0 0 0
SMALL
GASTEIGER

@<TRIPOS>ATOM
      1 C          23.8238   40.9023   27.6891 C.ar    1  UNL1        0.1137
      2 C          24.5048   40.5948   26.4975 C.ar    1  UNL1       -0.0445
      3 N          25.4708   41.3668   26.0625 N.ar    1  UNL1       -0.2785
      4 C          25.8227   42.4529   26.7626 C.ar    1  UNL1        0.0956
      5 C          26.8584   43.2935   26.3208 C.ar    1  UNL1        0.0205
      6 C          27.1954   44.3914   27.0516 C.ar    1  UNL1        0.0016
      7 C          26.5269   44.6968   28.2354 C.ar    1  UNL1        0.0016
      8 C          25.5190   43.9052   28.6941 C.ar    1  UNL1        0.0207
      9 C          25.1434   42.7633   27.9663 C.ar    1  UNL1        0.1001
     10 N          24.1551   41.9675   28.3936 N.ar    1  UNL1       -0.2307
     11 C          20.8864   38.9986   30.0040 C.3     1  UNL1        0.0078
     12 C          22.1471   38.2293   29.5997 C.3     1  UNL1        0.0219
     13 C          23.2518   39.2244   29.2371 C.3     1  UNL1        0.0921
     14 N          22.8005   40.0766   28.1297 N.pl3   1  UNL1       -0.2945
     15 C          21.6188   40.8607   28.5105 C.3     1  UNL1        0.0921
     16 C          20.4652   39.9144   28.8514 C.3     1  UNL1        0.0219
     17 C          19.7601   38.0096   30.3106 C.3     1  UNL1        0.0265
     18 C          17.1198   39.7102   33.2061 C.ar    1  UNL1       -0.0000
     19 C          16.6280   39.2915   31.9839 C.ar    1  UNL1       -0.0003
     20 C          17.4824   38.7410   31.0470 C.ar    1  UNL1       -0.0043
     21 C          18.8287   38.6097   31.3320 C.ar    1  UNL1       -0.0222
     22 C          19.3196   39.0240   32.5561 C.ar    1  UNL1       -0.0043
     23 C          18.4660   39.5786   33.4913 C.ar    1  UNL1       -0.0003
     24 C          24.1162   39.3699   25.7104 C.2     1  UNL1       -0.0672
     25 C          23.9514   39.7296   24.2925 C.1     1  UNL1       -0.1038
     26 N          23.8243   40.0073   23.1983 N.1     1  UNL1       -0.2341
     27 C          25.1946   38.3254   25.8415 C.2     1  UNL1        0.1746
     28 O          26.0398   38.2189   24.9848 O.2     1  UNL1       -0.2892
     29 O          25.2162   37.5135   26.9102 O.3     1  UNL1       -0.4681
     30 C          26.3722   37.6049   27.7841 C.3     1  UNL1        0.2321
     31 C          26.3799   36.4326   28.7311 C.ar    1  UNL1        0.0212
     32 C          27.0376   35.2675   28.3834 C.ar    1  UNL1       -0.0007
     33 C          27.0491   34.1940   29.2543 C.ar    1  UNL1       -0.0002
     34 C          26.3936   34.2819   30.4682 C.ar    1  UNL1       -0.0000
     35 C          25.7311   35.4449   30.8135 C.ar    1  UNL1       -0.0002
     36 C          25.7244   36.5204   29.9450 C.ar    1  UNL1       -0.0007
@<TRIPOS>UNITY_ATOM_ATTR
24 1
charge -1
@<TRIPOS>BOND
     1    18    23   ar
     2    18    19   ar
     3    19    20   ar
     4    20    21   ar
     5    21    22   ar
     6    21    17    1
     7    22    23   ar
     8    17    11    1
     9    11    16    1
    10    11    12    1
    11    12    13    1
    12    13    14    1
    13    14    15    1
    14    14     1    1
    15    15    16    1
    16     1    10   ar
    17     1     2   ar
    18     2     3   ar
    19     2    24    1
    20     3     4   ar
    21     4     9   ar
    22     4     5   ar
    23     5     6   ar
    24     6     7   ar
    25     7     8   ar
    26     8     9   ar
    27     9    10   ar
    28    24    25    1
    29    24    27    1
    30    25    26    3
    31    27    28    2
    32    27    29    1
    33    29    30    1
    34    30    31    1
    35    31    36   ar
    36    31    32   ar
    37    32    33   ar
    38    33    34   ar
    39    34    35   ar
    40    35    36   ar
@<TRIPOS>MOLECULE
ZINC00743249
 32 34 0 0 0
SMALL
GASTEIGER

@<TRIPOS>ATOM
      1 C          25.8054   39.3454   29.3819 C.3     1  UNL1        0.1805
      2 C          26.9749   38.4404   29.0912 C.2     1  UNL1        0.2442
      3 O          28.0080   38.9049   28.6575 O.2     1  UNL1       -0.2733
      4 N          26.8728   37.1150   29.3131 N.am    1  UNL1       -0.2696
      5 C          28.0098   36.2353   29.0304 C.3     1  UNL1        0.1205
      6 C          27.6058   35.2055   28.0071 C.ar    1  UNL1       -0.0023
      7 C          27.4040   35.5803   26.6919 C.ar    1  UNL1       -0.0026
      8 C          27.0386   34.6347   25.7521 C.ar    1  UNL1       -0.0003
      9 C          26.8642   33.3164   26.1296 C.ar    1  UNL1       -0.0000
     10 C          27.0603   32.9427   27.4459 C.ar    1  UNL1       -0.0003
     11 C          27.4313   33.8873   28.3846 C.ar    1  UNL1       -0.0026
     12 C          25.6251   36.5539   29.8369 C.3     1  UNL1        0.1269
     13 C          25.8062   36.1951   31.2893 C.ar    1  UNL1        0.0273
     14 C          24.9413   35.5769   32.1301 C.ar    1  UNL1        0.0044
     15 C          25.3273   35.3442   33.4368 C.ar    1  UNL1        0.0072
     16 C          26.5553   35.7509   33.8418 C.ar    1  UNL1        0.0352
     17 S          27.2125   36.4812   32.3511 S.2     1  UNL1       -0.0891
     18 N          25.3748   39.9999   28.1441 N.3     1  UNL1       -0.1489
     19 C          25.9275   41.3056   27.7753 C.3     1  UNL1        0.0666
     20 C          24.7843   42.2743   27.4659 C.3     1  UNL1        0.0178
     21 C          26.7599   41.8534   28.9363 C.3     1  UNL1        0.0178
     22 C          26.8153   41.1528   26.5386 C.3     1  UNL1        0.0178
     23 S          24.2633   39.2640   27.1617 S.O2    1  UNL1        0.0636
     24 O          23.9340   40.2025   26.1467 O.2     1  UNL1       -0.1528
     25 O          24.7745   37.9712   26.8671 O.2     1  UNL1       -0.1528
     26 C          19.2614   38.4359   30.4328 C.3     1  UNL1        0.0310
     27 C          20.5105   38.6427   29.6156 C.ar    1  UNL1       -0.0218
     28 C          20.9115   39.9217   29.2776 C.ar    1  UNL1       -0.0029
     29 C          22.0574   40.1114   28.5280 C.ar    1  UNL1        0.0196
     30 C          22.8027   39.0222   28.1171 C.ar    1  UNL1        0.1222
     31 C          22.3992   37.7429   28.4510 C.ar    1  UNL1        0.0196
     32 C          21.2557   37.5534   29.2043 C.ar    1  UNL1       -0.0029
@<TRIPOS>BOND
     1    26    27    1
     2    27    32   ar
     3    27    28   ar
     4    28    29   ar
     5    29    30   ar
     6    30    31   ar
     7    30    23    1
     8    31    32   ar
     9    23    24    2
    10    23    25    2
    11    23    18    1
    12    18     1    1
    13    18    19    1
    14     1     2    1
    15     2     3    2
    16     2     4   am
    17     4     5    1
    18     4    12    1
    19     5     6    1
    20     6    11   ar
    21     6     7   ar
    22     7     8   ar
    23     8     9   ar
    24     9    10   ar
    25    10    11   ar
    26    12    13    1
    27    13    17   ar
    28    13    14   ar
    29    14    15   ar
    30    15    16   ar
    31    16    17   ar
    32    19    20    1
    33    19    21    1
    34    19    22    1
@<TRIPOS>MOLECULE
ZINC27809176
 32 36 0 0 0
SMALL
GASTEIGER

@<TRIPOS>ATOM
      1 C          18.3338   39.0251   30.9676 C.ar    1  UNL1        0.1744
      2 N          17.6214   38.3211   30.1112 N.ar    1  UNL1       -0.2158
      3 C          16.2951   38.3156   30.1729 C.ar    1  UNL1        0.1168
      4 C          15.5886   39.0443   31.1444 C.ar    1  UNL1        0.0763
      5 C          14.1293   38.9389   31.0867 C.ar    1  UNL1       -0.0136
      6 C          13.6099   38.1610   30.1156 C.ar    1  UNL1        0.0049
      7 S          15.0112   37.5302   29.2320 S.2     1  UNL1       -0.0725
      8 C          12.1610   37.8905   29.8464 C.3     1  UNL1        0.0327
      9 C          11.3501   38.3326   31.0734 C.3     1  UNL1        0.0055
     10 C          11.8092   39.7345   31.4848 C.3     1  UNL1        0.0050
     11 C          13.2195   39.6680   32.0717 C.3     1  UNL1        0.0268
     12 C          16.3879   39.7944   32.0642 C.ar    1  UNL1        0.2640
     13 O          15.8622   40.4572   32.9419 O.2     1  UNL1       -0.2669
     14 N          17.7281   39.7576   31.9471 N.ar    1  UNL1       -0.2731
     15 S          20.0919   39.0150   30.8512 S.3     1  UNL1       -0.0686
     16 C          20.3032   39.7745   29.2219 C.3     1  UNL1        0.1336
     17 C          21.3308   40.9043   29.3152 C.3     1  UNL1        0.0221
     18 C          21.8443   37.6935   26.7353 C.ar    1  UNL1        0.1805
     19 N          21.7817   38.8619   27.3983 N.ar    1  UNL1       -0.1942
     20 C          20.7861   38.7360   28.2424 C.ar    1  UNL1        0.2464
     21 O          20.2853   37.5088   28.0719 O.2     1  UNL1       -0.3365
     22 N          20.9011   36.9307   27.2013 N.ar    1  UNL1       -0.0606
     23 C          22.8274   37.3347   25.6508 C.3     1  UNL1        0.0692
     24 C          23.9258   38.3978   25.5863 C.3     1  UNL1        0.0081
     25 C          25.5175   37.7930   27.4148 C.3     1  UNL1        0.0000
     26 C          25.2772   37.7546   25.9042 C.3     1  UNL1        0.0005
     27 C          18.5525   40.5232   32.8854 C.3     1  UNL1        0.1403
     28 C          18.6137   39.7895   34.2267 C.3     1  UNL1        0.1379
     29 C          19.5849   40.5084   35.1891 C.3     1  UNL1        0.0341
     30 C          20.2791   39.3596   35.9544 C.3     1  UNL1        0.0346
     31 C          19.6449   38.0797   35.3661 C.3     1  UNL1        0.1422
     32 O          19.1770   38.4682   34.0563 O.3     1  UNL1       -0.3543
@<TRIPOS>BOND
     1    25    26    1
     2    26    24    1
     3    24    23    1
     4    23    18    1
     5    18    22   ar
     6    18    19   ar
     7    19    20   ar
     8    20    21   ar
     9    20    16    1
    10    21    22   ar
    11    16    17    1
    12    16    15    1
    13    15     1    1
    14     1    14   ar
    15     1     2   ar
    16     2     3   ar
    17     3     7   ar
    18     3     4   ar
    19     4     5   ar
    20     4    12   ar
    21     5    11    1
    22     5     6   ar
    23     6     7   ar
    24     6     8    1
    25     8     9    1
    26     9    10    1
    27    10    11    1
    28    12    13    2
    29    12    14   ar
    30    14    27    1
    31    27    28    1
    32    28    32    1
    33    28    29    1
    34    29    30    1
    35    30    31    1
    36    31    32    1
@<TRIPOS>MOLECULE
ZINC24108516
 32 35 0 0 0
SMALL
GASTEIGER

@<TRIPOS>ATOM
      1 C          25.0990   39.5748   27.3137 C.3     1  UNL1        0.0921
      2 C          23.7512   41.5881   27.8656 C.ar    1  UNL1        0.1020
      3 C          23.8496   40.2314   27.8420 C.ar    1  UNL1        0.0041
      4 C          22.7865   39.4429   28.3146 C.ar    1  UNL1        0.0310
      5 C          22.7027   38.0254   28.3754 C.ar    1  UNL1        0.1403
      6 C          21.5788   37.4136   28.8651 C.ar    1  UNL1        0.0297
      7 C          20.4905   38.1503   29.3159 C.ar    1  UNL1        0.0028
      8 C          20.5363   39.5287   29.2720 C.ar    1  UNL1        0.0066
      9 C          21.6598   40.1601   28.7820 C.ar    1  UNL1        0.0315
     10 S          22.1267   41.8576   28.5530 S.2     1  UNL1       -0.0808
     11 F          23.7406   37.2745   27.9463 F       1  UNL1       -0.2042
     12 C          24.7359   42.5845   27.4275 C.2     1  UNL1        0.3470
     13 O          24.6769   43.0438   26.3033 O.2     1  UNL1       -0.2443
     14 O          25.7059   42.9904   28.2717 O.3     1  UNL1       -0.4451
     15 C          25.0621   44.7209   29.8595 C.3     1  UNL1        0.0513
     16 C          25.7867   44.4137   28.5475 C.3     1  UNL1        0.2089
     17 S          26.2840   39.3517   28.6689 S.3     1  UNL1       -0.0708
     18 C          26.9821   37.7622   28.3673 C.ar    1  UNL1        0.1944
     19 N          27.4874   37.3452   27.2318 N.ar    1  UNL1       -0.1208
     20 N          27.9353   36.0304   27.4146 N.ar    1  UNL1       -0.1122
     21 C          27.6822   35.6845   28.6528 C.ar    1  UNL1        0.2223
     22 N          27.0865   36.7452   29.2744 N.ar    1  UNL1       -0.2787
     23 N          27.9688   34.4549   29.2317 N.pl3   1  UNL1       -0.2731
     24 C          29.3994   34.1377   29.1136 C.3     1  UNL1        0.1257
     25 C          29.6809   32.8062   29.8150 C.3     1  UNL1        0.1637
     26 O          28.8519   31.7889   29.2464 O.3     1  UNL1       -0.3501
     27 C          27.4522   32.0653   29.3445 C.3     1  UNL1        0.1637
     28 C          27.1481   33.3892   28.6384 C.3     1  UNL1        0.1257
     29 C          26.6378   36.7853   30.6684 C.3     1  UNL1        0.1106
     30 C          25.2344   36.1845   30.7699 C.3     1  UNL1        0.0228
     31 C          25.2852   34.9099   31.6147 C.3     1  UNL1        0.0020
     32 C          24.2931   37.1954   31.4279 C.3     1  UNL1        0.0020
@<TRIPOS>BOND
     1    15    16    1
     2    16    14    1
     3    14    12    1
     4    12    13    2
     5    12     2    1
     6     2    10   ar
     7     2     3   ar
     8     3     4   ar
     9     3     1    1
    10     4     9   ar
    11     4     5   ar
    12     5     6   ar
    13     5    11    1
    14     6     7   ar
    15     7     8   ar
    16     8     9   ar
    17     9    10   ar
    18     1    17    1
    19    17    18    1
    20    18    22   ar
    21    18    19   ar
    22    19    20   ar
    23    20    21   ar
    24    21    22   ar
    25    21    23    1
    26    22    29    1
    27    29    30    1
    28    30    31    1
    29    30    32    1
    30    23    28    1
    31    23    24    1
    32    24    25    1
    33    25    26    1
    34    26    27    1
    35    27    28    1
@<TRIPOS>MOLECULE
ZINC24082476
 28 30 0 0 0
SMALL
GASTEIGER

@<TRIPOS>ATOM
      1 N          15.0030   38.6486   31.0239 N.ar    1  UNL1       -0.2862
      2 C          16.3315   39.0056   31.0448 C.ar    1  UNL1        0.1678
      3 N          16.8306   38.7018   29.8693 N.ar    1  UNL1       -0.1282
      4 N          15.9183   38.1866   29.1252 N.ar    1  UNL1       -0.1221
      5 C          14.7817   38.1252   29.7818 C.ar    1  UNL1        0.1939
      6 C          17.0594   39.6166   32.1770 C.ar    1  UNL1        0.0466
      7 C          16.3958   40.4749   33.0555 C.ar    1  UNL1        0.0048
      8 C          17.0788   41.0379   34.1132 C.ar    1  UNL1        0.0115
      9 C          18.4234   40.7625   34.2989 C.ar    1  UNL1        0.0585
     10 C          19.0892   39.9165   33.4287 C.ar    1  UNL1        0.0229
     11 C          18.4154   39.3423   32.3690 C.ar    1  UNL1        0.0614
     12 CL         19.2516   38.2825   31.2777 Cl      1  UNL1       -0.0821
     13 CL         19.2772   41.4806   35.6289 Cl      1  UNL1       -0.0822
     14 C          14.0301   38.7939   32.1096 C.3     1  UNL1        0.1359
     15 C          11.7456   39.4923   31.6054 C.2     1  UNL1       -0.0029
     16 C          13.0049   39.8311   31.7300 C.2     1  UNL1       -0.0017
     17 S          13.2557   37.4888   29.1725 S.3     1  UNL1       -0.0637
     18 C          13.5578   37.5993   27.3914 C.3     1  UNL1        0.1743
     19 C          12.2410   37.6182   26.6587 C.2     1  UNL1        0.3289
     20 O          11.3219   36.9389   27.0506 O.2     1  UNL1       -0.2491
     21 O          12.0894   38.3895   25.5707 O.3     1  UNL1       -0.4411
     22 C          10.7296   38.7001   25.1672 C.3     1  UNL1        0.2571
     23 C          10.7573   39.6022   23.9603 C.ar    1  UNL1        0.1429
     24 C          10.5456   40.9464   24.0337 C.ar    1  UNL1        0.1252
     25 S          10.7045   41.3988   22.3690 S.2     1  UNL1        0.0486
     26 N          10.9944   39.9768   21.7479 N.ar    1  UNL1       -0.1087
     27 N          10.9827   39.1611   22.7405 N.ar    1  UNL1       -0.1403
     28 CL         10.2091   41.9367   25.4192 Cl      1  UNL1       -0.0722
@<TRIPOS>BOND
     1    15    16    2
     2    16    14    1
     3    14     1    1
     4     1     5   ar
     5     1     2   ar
     6     2     3   ar
     7     2     6    1
     8     3     4   ar
     9     4     5   ar
    10     5    17    1
    11    17    18    1
    12    18    19    1
    13    19    20    2
    14    19    21    1
    15    21    22    1
    16    22    23    1
    17    23    27   ar
    18    23    24   ar
    19    24    25   ar
    20    24    28    1
    21    25    26   ar
    22    26    27   ar
    23     6    11   ar
    24     6     7   ar
    25     7     8   ar
    26     8     9   ar
    27     9    10   ar
    28     9    13    1
    29    10    11   ar
    30    11    12    1
@<TRIPOS>MOLECULE
ZINC13150291
 33 36 0 0 0
SMALL
GASTEIGER

@<TRIPOS>ATOM
      1 C          26.0076   36.7931   29.5052 C.ar    1  UNL1        0.0131
      2 C          26.1773   35.9068   30.5140 C.ar    1  UNL1        0.0371
      3 S          24.6598   36.0379   31.4397 S.2     1  UNL1       -0.0673
      4 C          23.8391   37.2688   30.4602 C.ar    1  UNL1        0.1174
      5 C          24.7613   37.5500   29.4372 C.ar    1  UNL1        0.0805
      6 C          24.3518   38.5296   28.4811 C.ar    1  UNL1        0.2645
      7 O          25.0875   38.8371   27.5588 O.2     1  UNL1       -0.2668
      8 N          23.1418   39.1044   28.6077 N.ar    1  UNL1       -0.2714
      9 C          22.3076   38.7766   29.6369 C.ar    1  UNL1        0.1746
     10 N          22.6606   37.8766   30.5322 N.ar    1  UNL1       -0.2157
     11 C          30.1273   37.5644   25.5572 C.3     1  UNL1        0.0310
     12 C          29.0490   37.3627   26.5904 C.ar    1  UNL1       -0.0218
     13 C          29.0502   38.1244   27.7452 C.ar    1  UNL1       -0.0043
     14 C          28.0654   37.9440   28.6949 C.ar    1  UNL1       -0.0003
     15 C          27.0679   36.9920   28.4886 C.ar    1  UNL1        0.0007
     16 C          27.0750   36.2236   27.3252 C.ar    1  UNL1       -0.0003
     17 C          28.0622   36.4162   26.3805 C.ar    1  UNL1       -0.0043
     18 S          20.7355   39.5617   29.7659 S.3     1  UNL1       -0.0692
     19 C          19.9694   38.5245   31.0360 C.3     1  UNL1        0.1307
     20 C          18.4861   38.7882   31.0726 C.2     1  UNL1        0.1798
     21 O          17.7506   38.2077   30.3109 O.2     1  UNL1       -0.2937
     22 C          17.9207   39.7765   32.0599 C.3     1  UNL1        0.1715
     23 C          18.7859   39.8051   33.2935 C.ar    1  UNL1       -0.0014
     24 C          19.3731   40.9891   33.6987 C.ar    1  UNL1       -0.0028
     25 C          20.1632   41.0161   34.8328 C.ar    1  UNL1       -0.0003
     26 C          20.3735   39.8572   35.5564 C.ar    1  UNL1       -0.0000
     27 C          19.7905   38.6721   35.1482 C.ar    1  UNL1       -0.0003
     28 C          18.9968   38.6459   34.0167 C.ar    1  UNL1       -0.0028
     29 C          16.5536   39.3742   32.4287 C.1     1  UNL1        0.0842
     30 N          15.4986   39.0638   32.7133 N.1     1  UNL1       -0.1951
     31 C          22.7145   40.1047   27.6263 C.3     1  UNL1        0.1374
     32 C          23.0807   41.4808   28.1196 C.2     1  UNL1       -0.0016
     33 C          24.0041   42.1741   27.5010 C.2     1  UNL1       -0.0029
@<TRIPOS>BOND
     1    11    12    1
     2    12    17   ar
     3    12    13   ar
     4    13    14   ar
     5    14    15   ar
     6    15    16   ar
     7    15     1    1
     8    16    17   ar
     9     1     5   ar
    10     1     2   ar
    11     2     3   ar
    12     3     4   ar
    13     4    10   ar
    14     4     5   ar
    15     5     6   ar
    16     6     7    2
    17     6     8   ar
    18     8     9   ar
    19     8    31    1
    20     9    10   ar
    21     9    18    1
    22    18    19    1
    23    19    20    1
    24    20    21    2
    25    20    22    1
    26    22    29    1
    27    22    23    1
    28    29    30    3
    29    23    28   ar
    30    23    24   ar
    31    24    25   ar
    32    25    26   ar
    33    26    27   ar
    34    27    28   ar
    35    31    32    1
    36    32    33    2
@<TRIPOS>MOLECULE
ZINC11926094
 34 37 0 0 0
SMALL
GASTEIGER

@<TRIPOS>ATOM
      1 S          25.5640   37.2339   29.9277 S.O2    1  UNL1        0.0663
      2 O          25.7368   36.5014   28.7224 O.2     1  UNL1       -0.1527
      3 O          26.4978   38.2114   30.3657 O.2     1  UNL1       -0.1527
      4 C          23.6326   38.9669   28.8190 C.ar    1  UNL1        0.0983
      5 C          24.0052   38.0460   29.8044 C.ar    1  UNL1        0.1564
      6 C          22.9582   37.8917   30.6477 C.ar    1  UNL1        0.1215
      7 N          21.9535   38.6810   30.2049 N.ar    1  UNL1       -0.2271
      8 N          22.4023   39.3452   29.0560 N.ar    1  UNL1       -0.1681
      9 C          20.6872   38.8119   30.7919 C.ar    1  UNL1        0.0829
     10 C          19.5461   38.5250   30.0550 C.ar    1  UNL1        0.0191
     11 C          18.2999   38.6508   30.6373 C.ar    1  UNL1        0.0015
     12 C          18.1878   39.0716   31.9497 C.ar    1  UNL1        0.0001
     13 C          19.3224   39.3627   32.6847 C.ar    1  UNL1        0.0015
     14 C          20.5714   39.2342   32.1094 C.ar    1  UNL1        0.0191
     15 C          25.8250   39.9623   28.2260 C.3     1  UNL1        0.0060
     16 C          24.4968   39.4371   27.6775 C.3     1  UNL1        0.0385
     17 C          23.7786   40.5569   26.9217 C.3     1  UNL1        0.0060
     18 C          24.7642   38.2694   26.7257 C.3     1  UNL1        0.0060
     19 N          25.4400   36.1187   31.1457 N.3     1  UNL1       -0.1506
     20 C          25.5901   34.6917   30.8502 C.3     1  UNL1        0.1009
     21 C          27.0408   34.4013   30.4607 C.3     1  UNL1        0.0455
     22 C          27.0809   33.2369   29.5048 C.ar    1  UNL1       -0.0207
     23 C          27.1397   33.4629   28.1423 C.ar    1  UNL1       -0.0042
     24 C          27.1814   32.3948   27.2657 C.ar    1  UNL1       -0.0003
     25 C          27.1540   31.1008   27.7512 C.ar    1  UNL1       -0.0000
     26 C          27.0894   30.8748   29.1134 C.ar    1  UNL1       -0.0003
     27 C          27.0530   31.9429   29.9902 C.ar    1  UNL1       -0.0042
     28 C          25.1802   36.5592   32.5185 C.3     1  UNL1        0.1221
     29 C          26.3060   36.1073   33.4126 C.ar    1  UNL1       -0.0045
     30 C          26.1424   35.0003   34.2241 C.ar    1  UNL1       -0.0029
     31 C          27.1768   34.5827   35.0404 C.ar    1  UNL1       -0.0003
     32 C          28.3712   35.2785   35.0532 C.ar    1  UNL1       -0.0000
     33 C          28.5329   36.3889   34.2459 C.ar    1  UNL1       -0.0003
     34 C          27.5004   36.8032   33.4255 C.ar    1  UNL1       -0.0029
@<TRIPOS>BOND
     1    15    16    1
     2    16    17    1
     3    16    18    1
     4    16     4    1
     5     4     8   ar
     6     4     5   ar
     7     5     6   ar
     8     5     1    1
     9     6     7   ar
    10     7     8   ar
    11     7     9    1
    12     9    14   ar
    13     9    10   ar
    14    10    11   ar
    15    11    12   ar
    16    12    13   ar
    17    13    14   ar
    18     1     2    2
    19     1     3    2
    20     1    19    1
    21    19    20    1
    22    19    28    1
    23    20    21    1
    24    21    22    1
    25    22    27   ar
    26    22    23   ar
    27    23    24   ar
    28    24    25   ar
    29    25    26   ar
    30    26    27   ar
    31    28    29    1
    32    29    34   ar
    33    29    30   ar
    34    30    31   ar
    35    31    32   ar
    36    32    33   ar
    37    33    34   ar
@<TRIPOS>MOLECULE
ZINC26888454
 35 38 0 0 0
SMALL
GASTEIGER

@<TRIPOS>ATOM
      1 C          13.7636   37.1999   28.0933 C.3     1  UNL1        0.0575
      2 C          12.3423   37.7664   28.0816 C.3     1  UNL1        0.2446
      3 C          11.5833   37.1948   26.9119 C.2     1  UNL1        0.2663
      4 O          11.8095   36.0639   26.5365 O.2     1  UNL1       -0.2710
      5 N          10.6531   37.9402   26.2830 N.am    1  UNL1       -0.2707
      6 C          10.3800   39.3062   26.7365 C.3     1  UNL1        0.1153
      7 C           9.9153   37.3846   25.1459 C.3     1  UNL1        0.1234
      8 C          10.2524   38.1623   23.8999 C.ar    1  UNL1        0.0377
      9 C          10.2341   37.6680   22.5910 C.ar    1  UNL1        0.1194
     10 N          10.5837   38.6360   21.7825 N.ar    1  UNL1       -0.1637
     11 N          10.8363   39.7793   22.5517 N.ar    1  UNL1       -0.2284
     12 C          10.6207   39.4634   23.8488 C.ar    1  UNL1        0.0993
     13 C          11.2361   41.0308   22.0628 C.ar    1  UNL1        0.0828
     14 C          11.8626   41.9390   22.9056 C.ar    1  UNL1        0.0191
     15 C          12.2592   43.1696   22.4199 C.ar    1  UNL1        0.0015
     16 C          12.0240   43.5014   21.0982 C.ar    1  UNL1        0.0001
     17 C          11.3958   42.6008   20.2576 C.ar    1  UNL1        0.0015
     18 C          11.0012   41.3668   20.7363 C.ar    1  UNL1        0.0191
     19 O          11.6793   37.4145   29.2976 O.3     1  UNL1       -0.4397
     20 C          11.8258   38.2570   30.3412 C.2     1  UNL1        0.3418
     21 O          10.8631   38.8606   30.7754 O.2     1  UNL1       -0.2449
     22 C          13.1408   38.4444   30.9498 C.2     1  UNL1        0.0819
     23 C          13.4831   39.6466   31.4614 C.2     1  UNL1        0.0066
     24 C          14.8062   39.8350   32.0737 C.ar    1  UNL1        0.0002
     25 C          14.9458   40.6813   33.1920 C.ar    1  UNL1        0.0000
     26 C          16.1563   40.8695   33.7733 C.ar    1  UNL1        0.0001
     27 C          17.2942   40.2163   33.2614 C.ar    1  UNL1        0.0030
     28 C          18.5554   40.3986   33.8488 C.ar    1  UNL1        0.0369
     29 C          19.6499   39.7469   33.3258 C.ar    1  UNL1        0.1387
     30 C          19.5178   38.9049   32.2164 C.ar    1  UNL1        0.0369
     31 C          18.3082   38.7107   31.6278 C.ar    1  UNL1        0.0031
     32 C          17.1683   39.3614   32.1361 C.ar    1  UNL1        0.0002
     33 C          15.9100   39.1774   31.5467 C.ar    1  UNL1        0.0000
     34 O          20.8710   39.9228   33.8938 O.3     1  UNL1       -0.4714
     35 C          20.8999   40.4737   35.2120 C.3     1  UNL1        0.2525
@<TRIPOS>BOND
     1     1     2    1
     2     2     3    1
     3     2    19    1
     4     3     4    2
     5     3     5   am
     6     5     6    1
     7     5     7    1
     8     7     8    1
     9     8    12   ar
    10     8     9   ar
    11     9    10   ar
    12    10    11   ar
    13    11    12   ar
    14    11    13    1
    15    13    18   ar
    16    13    14   ar
    17    14    15   ar
    18    15    16   ar
    19    16    17   ar
    20    17    18   ar
    21    19    20    1
    22    20    21    2
    23    20    22    1
    24    22    23    2
    25    23    24    1
    26    24    33   ar
    27    24    25   ar
    28    25    26   ar
    29    26    27   ar
    30    27    32   ar
    31    27    28   ar
    32    28    29   ar
    33    29    30   ar
    34    29    34    1
    35    30    31   ar
    36    31    32   ar
    37    32    33   ar
    38    34    35    1
@<TRIPOS>MOLECULE
ZINC18261499
 32 35 0 0 0
SMALL
GASTEIGER

@<TRIPOS>ATOM
      1 C          26.5110   35.2243   32.2235 C.ar    1  UNL1        0.0089
      2 C          26.7240   35.5273   30.9345 C.ar    1  UNL1        0.0090
      3 C          25.7696   36.3718   30.2370 C.ar    1  UNL1        0.0802
      4 C          24.6779   36.8017   31.0149 C.ar    1  UNL1        0.1171
      5 S          24.9856   36.0665   32.6003 S.2     1  UNL1       -0.0721
      6 N          23.7221   37.5779   30.5189 N.ar    1  UNL1       -0.2157
      7 C          23.7598   37.9798   29.2646 C.ar    1  UNL1        0.1744
      8 N          24.7831   37.6096   28.4408 N.ar    1  UNL1       -0.2756
      9 C          25.7810   36.8202   28.8786 C.ar    1  UNL1        0.2642
     10 O          26.6850   36.4945   28.1285 O.2     1  UNL1       -0.2669
     11 C          26.9481   34.6206   34.5886 C.3     1  UNL1        0.0056
     12 C          27.3581   34.3746   33.1353 C.3     1  UNL1        0.0330
     13 C          24.7920   38.0756   27.0519 C.3     1  UNL1        0.1110
     14 C          25.6618   39.3293   26.9402 C.3     1  UNL1        0.0246
     15 C          25.1272   40.2226   25.8189 C.3     1  UNL1        0.0019
     16 C          24.0085   39.4917   25.0740 C.3     1  UNL1        0.0001
     17 C          24.5787   41.5194   26.4177 C.3     1  UNL1        0.0001
     18 S          22.4723   39.0095   28.6427 S.3     1  UNL1       -0.0672
     19 C          21.0887   37.8433   28.6859 C.3     1  UNL1        0.1517
     20 C          20.0899   38.2871   29.7235 C.ar    1  UNL1        0.2378
     21 N          20.3677   38.7788   30.8982 N.ar    1  UNL1       -0.1105
     22 N          19.2748   39.0497   31.5208 N.ar    1  UNL1       -0.1072
     23 C          18.2533   38.7373   30.7578 C.ar    1  UNL1        0.2496
     24 O          18.7512   38.2528   29.6025 O.2     1  UNL1       -0.4186
     25 C          16.8240   38.8924   31.0997 C.ar    1  UNL1        0.0553
     26 C          16.4501   39.2672   32.3917 C.ar    1  UNL1        0.0078
     27 C          15.1163   39.4159   32.7053 C.ar    1  UNL1        0.0371
     28 C          14.1442   39.1832   31.7409 C.ar    1  UNL1        0.1387
     29 C          14.5119   38.8047   30.4561 C.ar    1  UNL1        0.0371
     30 C          15.8437   38.6589   30.1333 C.ar    1  UNL1        0.0078
     31 O          12.8304   39.3258   32.0552 O.3     1  UNL1       -0.4714
     32 C          11.8798   38.8348   31.1079 C.3     1  UNL1        0.2525
@<TRIPOS>BOND
     1    11    12    1
     2    12     1    1
     3     1     5   ar
     4     1     2   ar
     5     2     3   ar
     6     3     9   ar
     7     3     4   ar
     8     4     5   ar
     9     4     6   ar
    10     6     7   ar
    11     7     8   ar
    12     7    18    1
    13     8     9   ar
    14     8    13    1
    15     9    10    2
    16    13    14    1
    17    14    15    1
    18    15    16    1
    19    15    17    1
    20    18    19    1
    21    19    20    1
    22    20    24   ar
    23    20    21   ar
    24    21    22   ar
    25    22    23   ar
    26    23    24   ar
    27    23    25    1
    28    25    30   ar
    29    25    26   ar
    30    26    27   ar
    31    27    28   ar
    32    28    29   ar
    33    28    31    1
    34    29    30   ar
    35    31    32    1
@<TRIPOS>MOLECULE
ZINC14523355
 34 36 0 0 0
SMALL
GASTEIGER

@<TRIPOS>ATOM
      1 N          24.5613   38.0398   29.3926 N.ar    1  UNL1       -0.2891
      2 C          23.2788   38.2455   29.6451 C.ar    1  UNL1        0.2673
      3 O          22.7960   37.9957   30.7352 O.2     1  UNL1       -0.2664
      4 C          22.4880   38.7736   28.5822 C.ar    1  UNL1        0.0899
      5 C          21.1467   39.0825   28.5627 C.2     1  UNL1        0.0488
      6 S          23.7041   38.9274   27.2836 S.2     1  UNL1       -0.0640
      7 C          25.0787   38.3351   28.1607 C.ar    1  UNL1        0.1053
      8 C          26.4021   38.1910   27.7136 C.2     1  UNL1        0.1250
      9 C          20.3941   39.0307   29.7537 C.ar    1  UNL1        0.1461
     10 C          19.3262   38.1857   30.0029 C.ar    1  UNL1        0.0406
     11 C          18.8806   38.4686   31.2958 C.ar    1  UNL1        0.0407
     12 C          19.6864   39.4705   31.7893 C.ar    1  UNL1        0.1475
     13 O          20.5940   39.7924   30.8498 O.2     1  UNL1       -0.4534
     14 C          19.5758   40.0845   33.1260 C.ar    1  UNL1        0.0620
     15 C          18.4362   40.8159   33.4708 C.ar    1  UNL1        0.0053
     16 C          18.3377   41.3835   34.7236 C.ar    1  UNL1        0.0002
     17 C          19.3680   41.2390   35.6369 C.ar    1  UNL1        0.0023
     18 C          20.5022   40.5214   35.3031 C.ar    1  UNL1        0.0297
     19 C          20.6141   39.9424   34.0532 C.ar    1  UNL1        0.1430
     20 F          21.7221   39.2411   33.7278 F       1  UNL1       -0.2041
     21 C          26.7657   38.6295   26.3998 C.1     1  UNL1        0.1053
     22 N          27.0539   38.9773   25.3575 N.1     1  UNL1       -0.1907
     23 C          27.3703   37.6158   28.5562 C.2     1  UNL1        0.1837
     24 O          27.7971   38.2412   29.5071 O.2     1  UNL1       -0.2906
     25 C          27.8788   36.2244   28.2799 C.3     1  UNL1        0.0563
     26 C          26.7631   35.3898   27.6478 C.3     1  UNL1        0.0077
     27 C          29.0678   36.2972   27.3196 C.3     1  UNL1        0.0077
     28 C          28.3219   35.5735   29.5918 C.3     1  UNL1        0.0077
     29 C          25.4327   37.4991   30.4387 C.3     1  UNL1        0.1121
     30 C          24.9834   36.0803   30.7939 C.3     1  UNL1        0.0566
     31 C          24.9769   35.9130   32.3146 C.3     1  UNL1        0.1442
     32 O          26.0401   35.0405   32.7025 O.3     1  UNL1       -0.3537
     33 C          27.3885   36.6173   33.9419 C.3     1  UNL1        0.0346
     34 C          26.5789   35.3201   33.9961 C.3     1  UNL1        0.1422
@<TRIPOS>BOND
     1    33    34    1
     2    34    32    1
     3    32    31    1
     4    31    30    1
     5    30    29    1
     6    29     1    1
     7     1     7   ar
     8     1     2   ar
     9     2     3    2
    10     2     4   ar
    11     4     5    2
    12     4     6   ar
    13     5     9    1
    14     9    13   ar
    15     9    10   ar
    16    10    11   ar
    17    11    12   ar
    18    12    13   ar
    19    12    14    1
    20    14    19   ar
    21    14    15   ar
    22    15    16   ar
    23    16    17   ar
    24    17    18   ar
    25    18    19   ar
    26    19    20    1
    27     6     7   ar
    28     7     8    2
    29     8    21    1
    30     8    23    1
    31    21    22    3
    32    23    24    2
    33    23    25    1
    34    25    26    1
    35    25    27    1
    36    25    28    1
@<TRIPOS>MOLECULE
ZINC24982046
 32 35 0 0 0
SMALL
GASTEIGER

@<TRIPOS>ATOM
      1 C          22.8074   38.5868   25.7013 C.3     1  UNL1        0.2766
      2 C          24.0850   39.0431   26.3575 C.2     1  UNL1        0.2181
      3 O          24.3720   40.2220   26.3721 O.2     1  UNL1       -0.2873
      4 C          27.2428   35.1055   27.0531 C.3     1  UNL1        0.0500
      5 C          26.3749   36.3187   27.2671 C.ar    1  UNL1        0.0373
      6 C          25.6651   36.9462   26.3144 C.ar    1  UNL1        0.0168
      7 C          24.9800   38.0637   26.9775 C.ar    1  UNL1        0.0512
      8 C          25.3584   38.0046   28.3057 C.ar    1  UNL1        0.0401
      9 N          26.1847   36.9549   28.4597 N.ar    1  UNL1       -0.3314
     10 C          24.9179   38.9501   29.3933 C.3     1  UNL1        0.0501
     11 C          26.7992   36.5542   29.7278 C.3     1  UNL1        0.1348
     12 C          25.7884   35.7575   30.5550 C.3     1  UNL1        0.1378
     13 C          25.6811   36.3595   31.9726 C.3     1  UNL1        0.0341
     14 C          25.5624   35.0915   32.8612 C.3     1  UNL1        0.0346
     15 C          26.4584   34.0988   32.0784 C.3     1  UNL1        0.1422
     16 O          26.2332   34.4029   30.6926 O.3     1  UNL1       -0.3543
     17 O          22.2442   37.4809   26.4549 O.3     1  UNL1       -0.4396
     18 C          21.2428   37.7675   27.3014 C.2     1  UNL1        0.3235
     19 O          20.4918   38.6831   27.0610 O.2     1  UNL1       -0.2497
     20 C          21.0551   36.9475   28.5518 C.3     1  UNL1        0.1556
     21 C          20.6230   37.8462   29.6817 C.ar    1  UNL1        0.0773
     22 C          21.5482   38.5634   30.3732 C.ar    1  UNL1        0.0521
     23 S          20.4983   39.4114   31.5468 S.2     1  UNL1       -0.0663
     24 C          18.9463   38.7200   30.9897 C.ar    1  UNL1        0.1104
     25 N          19.3533   37.9375   30.0002 N.ar    1  UNL1       -0.2421
     26 C          17.5777   38.9569   31.4968 C.ar    1  UNL1        0.0246
     27 C          17.3848   39.4591   32.7847 C.ar    1  UNL1        0.0021
     28 C          16.1057   39.6818   33.2512 C.ar    1  UNL1        0.0009
     29 C          15.0145   39.3998   32.4488 C.ar    1  UNL1        0.0114
     30 C          15.1982   38.8970   31.1721 C.ar    1  UNL1        0.0577
     31 C          16.4738   38.6739   30.6921 C.ar    1  UNL1        0.0134
     32 CL         13.8226   38.5455   30.1730 Cl      1  UNL1       -0.0822
@<TRIPOS>BOND
     1     4     5    1
     2     5     9   ar
     3     5     6   ar
     4     6     7   ar
     5     7     8   ar
     6     7     2    1
     7     8     9   ar
     8     8    10    1
     9     9    11    1
    10    11    12    1
    11    12    16    1
    12    12    13    1
    13    13    14    1
    14    14    15    1
    15    15    16    1
    16     2     3    2
    17     2     1    1
    18     1    17    1
    19    17    18    1
    20    18    19    2
    21    18    20    1
    22    20    21    1
    23    21    25   ar
    24    21    22   ar
    25    22    23   ar
    26    23    24   ar
    27    24    25   ar
    28    24    26    1
    29    26    31   ar
    30    26    27   ar
    31    27    28   ar
    32    28    29   ar
    33    29    30   ar
    34    30    31   ar
    35    30    32    1
@<TRIPOS>MOLECULE
ZINC25477187
 35 38 0 0 0
SMALL
GASTEIGER

@<TRIPOS>ATOM
      1 N          26.9051   34.1633   30.0337 N.ar    1  UNL1       -0.2651
      2 C          27.0651   32.8429   29.8137 C.ar    1  UNL1        0.2644
      3 O          27.1553   32.0679   30.7466 O.2     1  UNL1       -0.2668
      4 C          27.1350   32.3538   28.4244 C.ar    1  UNL1        0.0725
      5 C          27.3057   30.9995   28.1430 C.ar    1  UNL1        0.0062
      6 C          27.3671   30.5788   26.8308 C.ar    1  UNL1        0.0003
      7 C          27.2596   31.4940   25.7957 C.ar    1  UNL1        0.0015
      8 C          27.0785   32.8370   26.0619 C.ar    1  UNL1        0.0178
      9 C          27.0209   33.2782   27.3752 C.ar    1  UNL1        0.0731
     10 N          26.8574   34.6303   27.6700 N.ar    1  UNL1       -0.2557
     11 C          26.8013   35.0584   28.9776 C.ar    1  UNL1        0.2389
     12 N          26.6456   36.3546   28.9799 N.ar    1  UNL1       -0.1262
     13 N          26.5977   36.7916   27.6504 N.ar    1  UNL1       -0.1756
     14 C          26.7309   35.7052   26.8635 C.ar    1  UNL1        0.1899
     15 S          26.7386   35.6913   25.1516 S.2     1  UNL1       -0.0107
     16 C          26.8405   34.6619   31.4097 C.3     1  UNL1        0.1120
     17 C          25.3992   34.5765   31.9159 C.3     1  UNL1        0.0247
     18 C          26.4052   36.1837   33.5429 C.3     1  UNL1        0.0001
     19 C          25.1129   35.7606   32.8418 C.3     1  UNL1        0.0019
     20 C          24.5718   36.9317   32.0194 C.3     1  UNL1        0.0001
     21 C          26.4326   38.1751   27.1977 C.3     1  UNL1        0.2438
     22 N          25.0024   38.4714   27.0404 N.4     1  UNL1        0.3031
     23 C          24.6693   38.7265   25.6326 C.3     1  UNL1        0.1698
     24 H          24.4772   37.6510   27.3432 H       1  UNL1        0.2096
     25 C          24.6025   39.6018   27.8891 C.3     1  UNL1        0.1352
     26 C          23.2523   39.3209   28.4966 C.ar    1  UNL1        0.0327
     27 C          22.2844   40.3096   28.5109 C.ar    1  UNL1        0.0016
     28 C          21.0447   40.0576   29.0610 C.ar    1  UNL1        0.0063
     29 C          20.7713   38.8049   29.6138 C.ar    1  UNL1        0.0756
     30 C          21.7545   37.8136   29.6007 C.ar    1  UNL1        0.0063
     31 C          22.9881   38.0773   29.0426 C.ar    1  UNL1        0.0016
     32 C          19.4479   38.5295   30.2093 C.2     1  UNL1        0.3413
     33 O          18.4449   38.6240   29.5308 O.2     1  UNL1       -0.2449
     34 O          19.3533   38.1734   31.5052 O.3     1  UNL1       -0.4413
     35 C          19.2637   39.2468   32.4789 C.3     1  UNL1        0.2560
@<TRIPOS>UNITY_ATOM_ATTR
22 1
charge 1
@<TRIPOS>BOND
     1    18    19    1
     2    19    20    1
     3    19    17    1
     4    17    16    1
     5    16     1    1
     6     1    11   ar
     7     1     2   ar
     8     2     3    2
     9     2     4   ar
    10     4     9   ar
    11     4     5   ar
    12     5     6   ar
    13     6     7   ar
    14     7     8   ar
    15     8     9   ar
    16     9    10   ar
    17    10    14   ar
    18    10    11   ar
    19    11    12   ar
    20    12    13   ar
    21    13    14   ar
    22    13    21    1
    23    14    15    2
    24    21    22    1
    25    22    23    1
    26    22    25    1
    27    25    26    1
    28    26    31   ar
    29    26    27   ar
    30    27    28   ar
    31    28    29   ar
    32    29    30   ar
    33    29    32    1
    34    30    31   ar
    35    32    33    2
    36    32    34    1
    37    34    35    1
    38    22    24    1
@<TRIPOS>MOLECULE
ZINC23443451
 35 38 0 0 0
SMALL
GASTEIGER

@<TRIPOS>ATOM
      1 C          21.1545   38.4706   29.9408 C.ar    1  UNL1        0.0479
      2 C          20.9840   38.7860   28.5975 C.ar    1  UNL1        0.0146
      3 C          22.0740   38.8324   27.7555 C.ar    1  UNL1        0.0028
      4 C          23.3501   38.5630   28.2525 C.ar    1  UNL1        0.0178
      5 C          23.5176   38.2419   29.6004 C.ar    1  UNL1        0.0028
      6 C          22.4245   38.2012   30.4387 C.ar    1  UNL1        0.0146
      7 C          16.9431   40.1156   32.8141 C.2     1  UNL1        0.2257
      8 O          17.1596   40.6576   33.8773 O.2     1  UNL1       -0.2749
      9 N          17.8578   39.2784   32.2860 N.am    1  UNL1       -0.2760
     10 C          19.1248   39.0081   32.9824 C.3     1  UNL1        0.1148
     11 C          20.2781   39.2291   31.9981 C.3     1  UNL1        0.1123
     12 N          20.0487   38.4237   30.7911 N.pl3   1  UNL1       -0.3041
     13 C          18.8285   38.8478   30.0916 C.3     1  UNL1        0.1123
     14 C          17.6157   38.6112   30.9979 C.3     1  UNL1        0.1148
     15 C          15.6516   40.3784   32.0835 C.3     1  UNL1        0.0853
     16 C          14.5792   39.4051   32.5771 C.3     1  UNL1        0.0096
     17 C          12.2548   39.1642   31.6930 C.3     1  UNL1        0.0000
     18 C          13.7365   38.9306   31.3915 C.3     1  UNL1        0.0005
     19 C          24.5219   38.6115   27.3511 C.ar    1  UNL1        0.0845
     20 C          25.0116   37.5835   26.5945 C.ar    1  UNL1        0.0466
     21 C          26.1315   38.1149   25.9171 C.ar    1  UNL1        0.1780
     22 N          26.2484   39.3782   26.2802 N.ar    1  UNL1       -0.1585
     23 N          25.3216   39.6935   27.1119 N.ar    1  UNL1       -0.2295
     24 C          25.1584   40.9577   27.6924 C.ar    1  UNL1        0.0829
     25 C          25.9403   41.3305   28.7779 C.ar    1  UNL1        0.0215
     26 C          25.7739   42.5752   29.3524 C.ar    1  UNL1        0.0312
     27 C          24.8351   43.4553   28.8404 C.ar    1  UNL1        0.1402
     28 C          24.0546   43.0856   27.7576 C.ar    1  UNL1        0.0312
     29 C          24.2143   41.8399   27.1835 C.ar    1  UNL1        0.0215
     30 F          24.6768   44.6742   29.4012 F       1  UNL1       -0.2042
     31 C          27.0083   37.3910   24.9765 C.2     1  UNL1        0.3609
     32 O          27.7673   38.0082   24.2561 O.2     1  UNL1       -0.2431
     33 O          26.9671   36.0456   24.9167 O.3     1  UNL1       -0.4444
     34 C          27.8383   35.3186   25.8227 C.3     1  UNL1        0.2089
     35 C          27.0596   34.1702   26.4673 C.3     1  UNL1        0.0513
@<TRIPOS>BOND
     1    17    18    1
     2    18    16    1
     3    16    15    1
     4    15     7    1
     5     7     8    2
     6     7     9   am
     7     9    14    1
     8     9    10    1
     9    10    11    1
    10    11    12    1
    11    12    13    1
    12    12     1    1
    13    13    14    1
    14     1     6   ar
    15     1     2   ar
    16     2     3   ar
    17     3     4   ar
    18     4     5   ar
    19     4    19    1
    20     5     6   ar
    21    19    23   ar
    22    19    20   ar
    23    20    21   ar
    24    21    22   ar
    25    21    31    1
    26    22    23   ar
    27    23    24    1
    28    24    29   ar
    29    24    25   ar
    30    25    26   ar
    31    26    27   ar
    32    27    28   ar
    33    27    30    1
    34    28    29   ar
    35    31    32    2
    36    31    33    1
    37    33    34    1
    38    34    35    1
@<TRIPOS>MOLECULE
ZINC19829852
 35 38 0 0 0
SMALL
GASTEIGER

@<TRIPOS>ATOM
      1 C          20.6786   50.8200   23.1484 C.3     1  UNL1        0.1430
      2 C          21.8138   49.7941   23.0945 C.3     1  UNL1        0.0644
      3 C          23.0326   50.3771   23.7733 C.2     1  UNL1        0.0307
      4 C          23.2778   51.7056   23.6791 C.2     1  UNL1        0.0576
      5 C          24.5158   52.3037   24.3012 C.3     1  UNL1        0.0503
      6 C          24.8945   51.5099   25.5535 C.3     1  UNL1        0.0359
      7 C          25.1300   50.0490   25.1570 C.3     1  UNL1        0.0736
      8 C          23.8944   49.5194   24.4792 C.2     1  UNL1        0.1709
      9 O          23.6380   48.3339   24.5435 O.2     1  UNL1       -0.2916
     10 N          22.4223   52.5174   23.0272 N.2     1  UNL1       -0.2579
     11 C          21.2139   52.1686   22.7416 C.2     1  UNL1        0.0477
     12 C          20.3239   53.1240   21.9893 C.3     1  UNL1        0.0478
     13 C          26.1542   52.0807   26.1519 C.ar    1  UNL1       -0.0217
     14 C          27.2921   52.2066   25.3770 C.ar    1  UNL1       -0.0043
     15 C          28.4464   52.7343   25.9249 C.ar    1  UNL1       -0.0003
     16 C          28.4656   53.1270   27.2501 C.ar    1  UNL1       -0.0000
     17 C          27.3292   52.9966   28.0262 C.ar    1  UNL1       -0.0003
     18 C          26.1737   52.4730   27.4773 C.ar    1  UNL1       -0.0043
     19 C          22.1398   49.4766   21.6578 C.ar    1  UNL1       -0.0173
     20 C          21.1188   49.2641   20.7496 C.ar    1  UNL1       -0.0027
     21 C          21.4138   48.9785   19.4311 C.ar    1  UNL1        0.0142
     22 C          22.7381   48.8936   19.0199 C.ar    1  UNL1        0.0478
     23 C          23.7611   49.1022   19.9361 C.ar    1  UNL1        0.0142
     24 C          23.4590   49.3929   21.2520 C.ar    1  UNL1       -0.0027
     25 N          23.0401   48.5989   17.6885 N.pl3   1  UNL1       -0.3075
     26 C          23.7422   47.3573   17.3542 C.3     1  UNL1        0.0908
     27 C          24.7923   47.6391   16.2777 C.3     1  UNL1        0.0232
     28 C          22.6547   49.5313   16.6263 C.3     1  UNL1        0.0908
     29 C          23.2465   50.9113   16.9197 C.3     1  UNL1        0.0232
     30 C          20.1343   50.8961   24.5515 C.2     1  UNL1        0.3225
     31 O          19.3629   50.0542   24.9468 O.2     1  UNL1       -0.2497
     32 O          20.5063   51.8991   25.3622 O.3     1  UNL1       -0.4482
     33 C          20.3417   51.6888   26.7895 C.3     1  UNL1        0.2084
     34 C          22.0312   50.0489   27.6254 C.3     1  UNL1        0.0040
     35 C          21.7159   51.5351   27.4443 C.3     1  UNL1        0.0474
@<TRIPOS>BOND
     1    34    35    1
     2    35    33    1
     3    33    32    1
     4    32    30    1
     5    30    31    2
     6    30     1    1
     7     1    11    1
     8     1     2    1
     9     2     3    1
    10     2    19    1
    11     3     8    1
    12     3     4    2
    13     4     5    1
    14     4    10    1
    15     5     6    1
    16     6     7    1
    17     6    13    1
    18     7     8    1
    19     8     9    2
    20    13    18   ar
    21    13    14   ar
    22    14    15   ar
    23    15    16   ar
    24    16    17   ar
    25    17    18   ar
    26    10    11    2
    27    11    12    1
    28    19    24   ar
    29    19    20   ar
    30    20    21   ar
    31    21    22   ar
    32    22    23   ar
    33    22    25    1
    34    23    24   ar
    35    25    26    1
    36    25    28    1
    37    26    27    1
    38    28    29    1
@<TRIPOS>MOLECULE
ZINC26771348
 35 40 0 0 0
SMALL
GASTEIGER

@<TRIPOS>ATOM
      1 C          23.4465   38.5989   26.7359 C.ar    1  UNL1        0.0386
      2 C          24.3908   38.6061   27.7692 C.ar    1  UNL1        0.0045
      3 C          25.5227   39.3815   27.6587 C.ar    1  UNL1        0.0193
      4 C          25.7342   40.1487   26.5180 C.ar    1  UNL1        0.0841
      5 C          24.8012   40.1409   25.4863 C.ar    1  UNL1        0.0193
      6 C          23.6638   39.3728   25.5898 C.ar    1  UNL1        0.0045
      7 N          26.8883   40.9308   26.4081 N.ar    1  UNL1       -0.2145
      8 C          27.0653   42.1984   26.8780 C.ar    1  UNL1        0.0822
      9 C          28.3229   42.5629   26.5514 C.ar    1  UNL1        0.1385
     10 N          28.9113   41.5584   25.9003 N.ar    1  UNL1       -0.1272
     11 N          28.0979   40.5655   25.7977 N.ar    1  UNL1       -0.0598
     12 C          26.0517   43.0317   27.6191 C.3     1  UNL1        0.0371
     13 C          25.7852   42.4096   28.9912 C.3     1  UNL1        0.0056
     14 C          24.7561   43.2557   29.7436 C.3     1  UNL1        0.0004
     15 C          25.2970   44.6755   29.9237 C.3     1  UNL1        0.0000
     16 C          25.5636   45.2977   28.5516 C.3     1  UNL1        0.0004
     17 C          26.5926   44.4516   27.7992 C.3     1  UNL1        0.0056
     18 C          24.2602   45.3461   27.7518 C.3     1  UNL1        0.0000
     19 C          23.7194   43.9263   27.5716 C.3     1  UNL1        0.0004
     20 C          23.4527   43.3042   28.9437 C.3     1  UNL1        0.0000
     21 C          24.7483   43.0802   26.8191 C.3     1  UNL1        0.0056
     22 C          22.2339   37.7767   26.8512 C.2     1  UNL1        0.2170
     23 O          21.6145   37.4666   25.8555 O.2     1  UNL1       -0.2874
     24 C          21.7599   37.3187   28.2064 C.3     1  UNL1        0.2769
     25 O          21.5942   38.4518   29.0611 O.3     1  UNL1       -0.4368
     26 C          20.4733   38.4948   29.8106 C.2     1  UNL1        0.3418
     27 O          19.4778   37.8961   29.4508 O.2     1  UNL1       -0.2449
     28 C          19.4748   39.0571   31.9597 C.2     1  UNL1        0.0066
     29 C          20.4555   39.2612   31.0560 C.2     1  UNL1        0.0819
     30 C          19.4230   41.2805   35.5717 C.ar    1  UNL1        0.0000
     31 C          18.3315   41.3228   34.7217 C.ar    1  UNL1        0.0000
     32 C          18.3408   40.6029   33.5456 C.ar    1  UNL1        0.0000
     33 C          19.4568   39.8285   33.2129 C.ar    1  UNL1        0.0002
     34 C          20.5533   39.7864   34.0800 C.ar    1  UNL1        0.0000
     35 C          20.5311   40.5165   35.2495 C.ar    1  UNL1        0.0000
@<TRIPOS>BOND
     1    30    35   ar
     2    30    31   ar
     3    31    32   ar
     4    32    33   ar
     5    33    34   ar
     6    33    28    1
     7    34    35   ar
     8    28    29    2
     9    29    26    1
    10    26    27    2
    11    26    25    1
    12    25    24    1
    13    24    22    1
    14    22    23    2
    15    22     1    1
    16     1     6   ar
    17     1     2   ar
    18     2     3   ar
    19     3     4   ar
    20     4     5   ar
    21     4     7    1
    22     5     6   ar
    23     7    11   ar
    24     7     8   ar
    25     8     9   ar
    26     8    12    1
    27     9    10   ar
    28    10    11   ar
    29    12    17    1
    30    12    21    1
    31    12    13    1
    32    13    14    1
    33    14    20    1
    34    14    15    1
    35    15    16    1
    36    16    17    1
    37    16    18    1
    38    18    19    1
    39    19    20    1
    40    19    21    1
@<TRIPOS>MOLECULE
ZINC30322991
 24 25 0 0 0
SMALL
GASTEIGER

@<TRIPOS>ATOM
      1 S          21.5010   37.9706   28.0369 S.O2    1  UNL1        0.0649
      2 O          21.6059   36.7620   28.7769 O.2     1  UNL1       -0.1527
      3 O          20.5609   38.1406   26.9850 O.2     1  UNL1       -0.1527
      4 C          24.4957   39.0364   25.6147 C.ar    1  UNL1        0.1069
      5 C          23.2106   38.8237   26.0925 C.ar    1  UNL1        0.0339
      6 C          23.0922   38.2771   27.3447 C.ar    1  UNL1        0.1351
      7 C          24.2181   37.9797   28.0485 C.ar    1  UNL1        0.0826
      8 S          25.4934   38.4479   26.9716 S.2     1  UNL1       -0.0724
      9 BR         24.3579   37.2333   29.7804 Br      1  UNL1       -0.0405
     10 C          24.9218   39.5974   24.3325 C.2     1  UNL1        0.3475
     11 O          26.0449   39.3822   23.9176 O.2     1  UNL1       -0.2443
     12 C          24.0910   40.1808   22.1920 C.3     1  UNL1        0.2560
     13 O          24.0693   40.3536   23.6103 O.3     1  UNL1       -0.4410
     14 N          21.2049   39.1740   29.1353 N.3     1  UNL1       -0.1461
     15 C          20.9829   40.5470   28.6755 C.3     1  UNL1        0.1222
     16 C          22.2994   41.2786   28.6239 C.2     1  UNL1       -0.0071
     17 C          22.3219   42.5884   28.6385 C.2     1  UNL1       -0.0034
     18 C          21.1650   38.8653   30.5669 C.3     1  UNL1        0.1289
     19 C          19.7407   38.9304   31.0552 C.ar    1  UNL1        0.0259
     20 C          18.6006   38.5866   30.4087 C.ar    1  UNL1        0.0050
     21 C          17.3899   38.7322   31.0604 C.ar    1  UNL1        0.0182
     22 C          17.3800   39.2151   32.3281 C.ar    1  UNL1        0.0867
     23 S          19.1185   39.4805   32.6355 S.2     1  UNL1       -0.0784
     24 CL         16.0279   39.5001   33.3790 Cl      1  UNL1       -0.0752
@<TRIPOS>BOND
     1    12    13    1
     2    13    10    1
     3    10    11    2
     4    10     4    1
     5     4     8   ar
     6     4     5   ar
     7     5     6   ar
     8     6     7   ar
     9     6     1    1
    10     7     8   ar
    11     7     9    1
    12     1     2    2
    13     1     3    2
    14     1    14    1
    15    14    15    1
    16    14    18    1
    17    15    16    1
    18    16    17    2
    19    18    19    1
    20    19    23   ar
    21    19    20   ar
    22    20    21   ar
    23    21    22   ar
    24    22    23   ar
    25    22    24    1
@<TRIPOS>MOLECULE
ZINC10755181
 32 35 0 0 0
SMALL
GASTEIGER

@<TRIPOS>ATOM
      1 C          20.7296   37.5958   28.4045 C.2     1  UNL1        0.3234
      2 O          20.6428   36.4950   28.8951 O.2     1  UNL1       -0.2497
      3 O          20.2264   38.6598   29.0497 O.3     1  UNL1       -0.4431
      4 C          20.1688   38.5855   30.4986 C.3     1  UNL1        0.2374
      5 C          13.8316   39.0847   31.5435 C.ar    1  UNL1        0.1402
      6 C          14.0319   38.6206   30.2394 C.ar    1  UNL1        0.0370
      7 C          15.2876   38.4243   29.7550 C.ar    1  UNL1        0.0046
      8 C          16.3984   38.6903   30.5730 C.ar    1  UNL1        0.0178
      9 C          17.7123   38.4987   30.1066 C.ar    1  UNL1        0.0032
     10 C          18.7455   38.7765   30.9553 C.ar    1  UNL1        0.0498
     11 C          18.4822   39.2369   32.2450 C.ar    1  UNL1        0.1378
     12 N          17.2557   39.4140   32.6769 N.ar    1  UNL1       -0.2341
     13 C          16.2003   39.1607   31.8952 C.ar    1  UNL1        0.0852
     14 C          14.8904   39.3479   32.3654 C.ar    1  UNL1        0.0560
     15 CL         19.8110   39.5844   33.3066 Cl      1  UNL1       -0.0616
     16 C          11.5046   38.7319   31.2109 C.3     1  UNL1        0.2525
     17 O          12.5662   39.2716   32.0007 O.3     1  UNL1       -0.4714
     18 C          21.4031   37.7741   27.0681 C.3     1  UNL1        0.1556
     19 C          22.8014   38.2960   27.2759 C.ar    1  UNL1        0.0770
     20 C          23.4773   38.8958   26.2630 C.ar    1  UNL1        0.0519
     21 S          25.0169   39.2864   27.0817 S.2     1  UNL1       -0.0670
     22 C          24.6151   38.6317   28.6392 C.ar    1  UNL1        0.1318
     23 N          23.3952   38.1864   28.4458 N.ar    1  UNL1       -0.2427
     24 C          25.4502   38.5909   29.8931 C.3     1  UNL1        0.2574
     25 O          26.1575   37.3508   29.9541 O.3     1  UNL1       -0.4684
     26 C          26.1653   36.7030   31.1492 C.ar    1  UNL1        0.1393
     27 C          27.3681   36.4353   31.7859 C.ar    1  UNL1        0.0392
     28 C          27.3742   35.7824   33.0035 C.ar    1  UNL1        0.0327
     29 C          26.1810   35.3847   33.5824 C.ar    1  UNL1        0.1403
     30 C          24.9800   35.6458   32.9450 C.ar    1  UNL1        0.0327
     31 C          24.9706   36.3040   31.7304 C.ar    1  UNL1        0.0392
     32 F          26.1886   34.7417   34.7705 F       1  UNL1       -0.2042
@<TRIPOS>BOND
     1    16    17    1
     2    17     5    1
     3     5    14   ar
     4     5     6   ar
     5     6     7   ar
     6     7     8   ar
     7     8    13   ar
     8     8     9   ar
     9     9    10   ar
    10    10    11   ar
    11    10     4    1
    12    11    12   ar
    13    11    15    1
    14    12    13   ar
    15    13    14   ar
    16     4     3    1
    17     3     1    1
    18     1     2    2
    19     1    18    1
    20    18    19    1
    21    19    23   ar
    22    19    20   ar
    23    20    21   ar
    24    21    22   ar
    25    22    23   ar
    26    22    24    1
    27    24    25    1
    28    25    26    1
    29    26    31   ar
    30    26    27   ar
    31    27    28   ar
    32    28    29   ar
    33    29    30   ar
    34    29    32    1
    35    30    31   ar
@<TRIPOS>MOLECULE
ZINC23973504
 32 35 0 0 0
SMALL
GASTEIGER

@<TRIPOS>ATOM
      1 S          13.2303   37.2413   27.9748 S.3     1  UNL1       -0.0488
      2 C          11.1984   38.0236   24.7677 C.ar    1  UNL1        0.2708
      3 N          10.6850   36.8863   25.1347 N.ar    1  UNL1       -0.1070
      4 N          11.2674   36.4766   26.2062 N.ar    1  UNL1       -0.1008
      5 C          12.1748   37.3514   26.5683 C.ar    1  UNL1        0.2785
      6 O          12.1498   38.3494   25.6648 O.2     1  UNL1       -0.4110
      7 C          10.7976   38.8334   23.5616 C.3     1  UNL1        0.2912
      8 O          11.7053   39.9248   23.3975 O.3     1  UNL1       -0.4658
      9 C          11.7904   42.6619   19.3574 C.3     1  UNL1        0.0311
     10 C          11.2694   42.3725   20.7415 C.ar    1  UNL1       -0.0189
     11 C          10.3287   43.2088   21.3144 C.ar    1  UNL1       -0.0044
     12 C           9.8485   42.9459   22.5837 C.ar    1  UNL1       -0.0016
     13 C          10.3082   41.8468   23.2836 C.ar    1  UNL1        0.0121
     14 C          11.2520   41.0067   22.7114 C.ar    1  UNL1        0.1349
     15 C          11.7321   41.2726   21.4370 C.ar    1  UNL1        0.0323
     16 C           9.7849   41.5612   24.6677 C.3     1  UNL1        0.0342
     17 C          12.0478   37.6368   29.2869 C.3     1  UNL1        0.1128
     18 C          12.7335   38.4537   30.3516 C.ar    1  UNL1        0.0774
     19 C          12.0049   39.2692   31.1585 C.ar    1  UNL1        0.0524
     20 S          13.2970   39.9579   32.1854 S.2     1  UNL1       -0.0663
     21 C          14.6634   39.0866   31.4298 C.ar    1  UNL1        0.1105
     22 N          14.0349   38.3745   30.5046 N.ar    1  UNL1       -0.2417
     23 C          16.1047   39.1408   31.7535 C.ar    1  UNL1        0.0270
     24 C          16.5356   39.7676   32.9237 C.ar    1  UNL1        0.0053
     25 C          17.8809   39.8175   33.2243 C.ar    1  UNL1        0.0401
     26 C          18.8081   39.2454   32.3659 C.ar    1  UNL1        0.1724
     27 C          18.3847   38.6183   31.1964 C.ar    1  UNL1        0.1724
     28 C          17.0372   38.5604   30.8921 C.ar    1  UNL1        0.0421
     29 O          19.2961   38.0580   30.3569 O.3     1  UNL1       -0.4684
     30 C          19.8952   38.9158   29.3836 C.3     1  UNL1        0.2526
     31 O          20.1328   39.2962   32.6668 O.3     1  UNL1       -0.4684
     32 C          20.4803   39.4107   34.0482 C.3     1  UNL1        0.2526
@<TRIPOS>BOND
     1     9    10    1
     2    10    15   ar
     3    10    11   ar
     4    11    12   ar
     5    12    13   ar
     6    13    14   ar
     7    13    16    1
     8    14    15   ar
     9    14     8    1
    10     8     7    1
    11     7     2    1
    12     2     6   ar
    13     2     3   ar
    14     3     4   ar
    15     4     5   ar
    16     5     6   ar
    17     5     1    1
    18     1    17    1
    19    17    18    1
    20    18    22   ar
    21    18    19   ar
    22    19    20   ar
    23    20    21   ar
    24    21    22   ar
    25    21    23    1
    26    23    28   ar
    27    23    24   ar
    28    24    25   ar
    29    25    26   ar
    30    26    27   ar
    31    26    31    1
    32    27    28   ar
    33    27    29    1
    34    29    30    1
    35    31    32    1
@<TRIPOS>MOLECULE
ZINC09718237
 32 35 0 0 0
SMALL
GASTEIGER

@<TRIPOS>ATOM
      1 C          12.2460   37.8437   28.6862 C.ar    1  UNL1        0.1112
      2 C          13.5120   37.4182   28.4543 C.ar    1  UNL1        0.0566
      3 S          13.5574   37.4695   26.6687 S.2     1  UNL1       -0.0505
      4 C          11.9376   38.0431   26.4180 C.ar    1  UNL1        0.1726
      5 N          11.4867   38.1498   27.6527 N.ar    1  UNL1       -0.2241
      6 N          11.2832   38.3186   25.2217 N.am    1  UNL1       -0.2139
      7 C          10.6865   37.3239   24.5354 C.2     1  UNL1        0.2351
      8 O          10.7201   36.1885   24.9608 O.2     1  UNL1       -0.2741
      9 C           9.9776   37.6224   23.2395 C.3     1  UNL1        0.0956
     10 C          11.2445   39.6314   24.7299 C.ar    1  UNL1        0.0937
     11 C          12.0676   40.0044   23.6774 C.ar    1  UNL1        0.0184
     12 C          12.0276   41.2985   23.1945 C.ar    1  UNL1        0.0015
     13 C          11.1684   42.2242   23.7578 C.ar    1  UNL1        0.0032
     14 C          10.3452   41.8598   24.8068 C.ar    1  UNL1        0.0382
     15 C          10.3751   40.5627   25.2930 C.ar    1  UNL1        0.1526
     16 O           9.5616   40.2012   26.3208 O.3     1  UNL1       -0.4702
     17 C           9.6159   41.0014   27.5035 C.3     1  UNL1        0.2525
     18 C          11.7206   37.9698   30.0930 C.3     1  UNL1        0.2548
     19 O          12.8159   37.8181   31.0341 O.3     1  UNL1       -0.4384
     20 C          13.3549   38.9492   31.5340 C.2     1  UNL1        0.3477
     21 O          12.6426   39.9021   31.7871 O.2     1  UNL1       -0.2443
     22 C          19.1260   39.1741   33.9069 C.3     1  UNL1        0.0047
     23 C          19.6656   39.6919   32.5664 C.3     1  UNL1        0.0055
     24 C          18.9180   38.9857   31.4263 C.3     1  UNL1        0.0326
     25 C          17.4499   39.0454   31.7162 C.ar    1  UNL1        0.0035
     26 C          16.8575   39.3591   32.9067 C.ar    1  UNL1       -0.0195
     27 C          15.4730   39.3512   32.9356 C.ar    1  UNL1        0.0089
     28 C          14.7971   39.0297   31.7719 C.ar    1  UNL1        0.1045
     29 S          16.1433   38.7390   30.6366 S.2     1  UNL1       -0.0852
     30 C          17.7067   39.6973   34.1293 C.3     1  UNL1        0.0266
     31 C          19.7974   41.1503   35.2803 C.3     1  UNL1        0.0000
     32 C          20.0293   39.6566   35.0435 C.3     1  UNL1        0.0003
@<TRIPOS>BOND
     1    31    32    1
     2    32    22    1
     3    22    30    1
     4    22    23    1
     5    23    24    1
     6    24    25    1
     7    25    29   ar
     8    25    26   ar
     9    26    27   ar
    10    26    30    1
    11    27    28   ar
    12    28    29   ar
    13    28    20    1
    14    20    21    2
    15    20    19    1
    16    19    18    1
    17    18     1    1
    18     1     5   ar
    19     1     2   ar
    20     2     3   ar
    21     3     4   ar
    22     4     5   ar
    23     4     6    1
    24     6    10    1
    25     6     7   am
    26    10    15   ar
    27    10    11   ar
    28    11    12   ar
    29    12    13   ar
    30    13    14   ar
    31    14    15   ar
    32    15    16    1
    33    16    17    1
    34     7     8    2
    35     7     9    1
@<TRIPOS>MOLECULE
ZINC30793973
 35 38 0 0 0
SMALL
GASTEIGER

@<TRIPOS>ATOM
      1 C          13.5379   37.1669   28.5018 C.2     1  UNL1        0.2729
      2 O          14.4162   36.4048   28.1525 O.2     1  UNL1       -0.2795
      3 C          11.2078   37.8834   30.5367 C.3     1  UNL1        0.0541
      4 C          12.6594   38.2693   30.6584 C.ar    1  UNL1        0.0837
      5 C          13.6874   37.9413   29.7411 C.ar    1  UNL1        0.0743
      6 C          14.8605   38.4944   30.2313 C.ar    1  UNL1        0.0653
      7 N          14.5588   39.1136   31.3852 N.ar    1  UNL1       -0.2339
      8 N          13.1890   38.9633   31.6267 N.ar    1  UNL1       -0.1697
      9 C          16.2222   38.4134   29.5907 C.3     1  UNL1        0.0523
     10 C          15.4635   39.8000   32.2060 C.ar    1  UNL1        0.0824
     11 C          15.1057   41.0176   32.7700 C.ar    1  UNL1        0.0191
     12 C          15.9973   41.6886   33.5835 C.ar    1  UNL1        0.0015
     13 C          17.2496   41.1549   33.8275 C.ar    1  UNL1        0.0039
     14 C          17.6088   39.9428   33.2675 C.ar    1  UNL1        0.0729
     15 C          16.7193   39.2641   32.4575 C.ar    1  UNL1        0.0230
     16 C          18.9723   39.3621   33.5406 C.3     1  UNL1        0.4186
     17 F          19.2407   38.3473   32.6158 F       1  UNL1       -0.1659
     18 F          19.9390   40.3667   33.4242 F       1  UNL1       -0.1659
     19 F          19.0031   38.8331   34.8354 F       1  UNL1       -0.1659
     20 C          12.3062   37.3170   27.6721 C.2     1  UNL1        0.3813
     21 O          11.4035   36.5139   27.7759 O.2     1  UNL1       -0.2413
     22 O          12.1975   38.3436   26.8089 O.3     1  UNL1       -0.4349
     23 C          10.8576   38.7108   26.3868 C.3     1  UNL1        0.2719
     24 C          10.7071   38.4503   24.9102 C.ar    1  UNL1        0.1654
     25 N          10.8949   37.3031   24.3172 N.ar    1  UNL1       -0.2255
     26 C          10.6722   37.4434   23.0020 C.ar    1  UNL1        0.1190
     27 C          10.3336   38.7262   22.7712 C.ar    1  UNL1        0.0981
     28 N          10.3499   39.3641   23.9822 N.ar    1  UNL1       -0.3065
     29 C          10.0412   40.7753   24.2256 C.3     1  UNL1        0.1340
     30 C          10.7265   41.6258   23.1872 C.ar    1  UNL1        0.0004
     31 C           9.9758   42.4063   22.3280 C.ar    1  UNL1       -0.0024
     32 C          10.6047   43.1902   21.3787 C.ar    1  UNL1       -0.0003
     33 C          11.9836   43.1855   21.2818 C.ar    1  UNL1       -0.0000
     34 C          12.7339   42.4010   22.1376 C.ar    1  UNL1       -0.0003
     35 C          12.1054   41.6211   23.0903 C.ar    1  UNL1       -0.0024
@<TRIPOS>BOND
     1     3     4    1
     2     4     8   ar
     3     4     5   ar
     4     5     6   ar
     5     5     1    1
     6     6     7   ar
     7     6     9    1
     8     7     8   ar
     9     7    10    1
    10    10    15   ar
    11    10    11   ar
    12    11    12   ar
    13    12    13   ar
    14    13    14   ar
    15    14    15   ar
    16    14    16    1
    17    16    17    1
    18    16    18    1
    19    16    19    1
    20     1     2    2
    21     1    20    1
    22    20    21    2
    23    20    22    1
    24    22    23    1
    25    23    24    1
    26    24    28   ar
    27    24    25   ar
    28    25    26   ar
    29    26    27   ar
    30    27    28   ar
    31    28    29    1
    32    29    30    1
    33    30    35   ar
    34    30    31   ar
    35    31    32   ar
    36    32    33   ar
    37    33    34   ar
    38    34    35   ar
@<TRIPOS>MOLECULE
ZINC27937969
 34 38 0 0 0
SMALL
GASTEIGER

@<TRIPOS>ATOM
      1 C          22.1799   38.7665   28.8579 C.3     1  UNL1        0.1143
      2 C          20.8039   38.3945   28.3687 C.2     1  UNL1        0.3177
      3 O          20.5294   38.5036   27.1971 O.2     1  UNL1       -0.2501
      4 O          19.8833   37.9420   29.2345 O.3     1  UNL1       -0.4418
      5 C          19.9272   38.4780   30.5832 C.3     1  UNL1        0.2541
      6 C          13.6788   39.1047   31.3124 C.ar    1  UNL1        0.1110
      7 N          14.5885   39.3623   32.2023 N.ar    1  UNL1       -0.1585
      8 N          15.9427   39.1879   31.9339 N.ar    1  UNL1       -0.1705
      9 C          16.9892   39.4223   32.7793 C.ar    1  UNL1        0.2834
     10 O          16.7815   39.8306   33.9114 O.2     1  UNL1       -0.2650
     11 C          18.2958   39.1883   32.3498 C.ar    1  UNL1        0.0810
     12 C          18.5234   38.7319   31.0688 C.ar    1  UNL1        0.1097
     13 N          17.4810   38.5144   30.2708 N.ar    1  UNL1       -0.2213
     14 C          16.2580   38.7315   30.6835 C.ar    1  UNL1        0.1992
     15 S          14.6586   38.5600   29.9225 S.2     1  UNL1       -0.0321
     16 C          11.5122   38.2175   30.4955 C.3     1  UNL1        0.0073
     17 C          12.1814   39.2330   31.4237 C.3     1  UNL1        0.0545
     18 C          23.2321   38.0078   28.0466 C.3     1  UNL1        0.0402
     19 C          23.9898   38.9769   27.1760 C.2     1  UNL1        0.0052
     20 C          24.4083   38.5974   25.9474 C.2     1  UNL1        0.0352
     21 C          24.2725   40.3285   27.6601 C.ar    1  UNL1        0.1068
     22 N          23.5173   41.4095   27.5893 N.ar    1  UNL1       -0.2387
     23 C          23.9073   42.5948   28.0800 C.ar    1  UNL1        0.0878
     24 C          23.1981   43.8206   28.0689 C.ar    1  UNL1        0.0196
     25 C          23.7382   44.9430   28.6138 C.ar    1  UNL1        0.0016
     26 C          24.9969   44.9367   29.1988 C.ar    1  UNL1        0.0006
     27 C          25.7235   43.7605   29.2308 C.ar    1  UNL1        0.0080
     28 C          25.1875   42.6209   28.6840 C.ar    1  UNL1        0.0485
     29 S          25.7253   40.9372   28.5053 S.2     1  UNL1       -0.0668
     30 C          24.9705   39.5863   25.0288 C.ar    1  UNL1        0.1453
     31 C          24.2734   40.3079   24.0998 C.ar    1  UNL1        0.0407
     32 C          25.2057   41.1305   23.4449 C.ar    1  UNL1        0.0438
     33 C          26.4129   40.8790   23.9944 C.ar    1  UNL1        0.1796
     34 O          26.2666   39.9511   24.9530 O.2     1  UNL1       -0.4504
@<TRIPOS>BOND
     1    16    17    1
     2    17     6    1
     3     6    15   ar
     4     6     7   ar
     5     7     8   ar
     6     8    14   ar
     7     8     9   ar
     8     9    10    2
     9     9    11   ar
    10    11    12   ar
    11    12    13   ar
    12    12     5    1
    13    13    14   ar
    14    14    15   ar
    15     5     4    1
    16     4     2    1
    17     2     3    2
    18     2     1    1
    19     1    18    1
    20    18    19    1
    21    19    20    2
    22    19    21    1
    23    20    30    1
    24    30    34   ar
    25    30    31   ar
    26    31    32   ar
    27    32    33   ar
    28    33    34   ar
    29    21    29   ar
    30    21    22   ar
    31    22    23   ar
    32    23    28   ar
    33    23    24   ar
    34    24    25   ar
    35    25    26   ar
    36    26    27   ar
    37    27    28   ar
    38    28    29   ar
@<TRIPOS>MOLECULE
ZINC02371313
 33 36 0 0 0
SMALL
GASTEIGER

@<TRIPOS>ATOM
      1 C          14.0919   37.6601   29.2156 C.ar    1  UNL1        0.1990
      2 N          15.3447   37.3951   28.9257 N.ar    1  UNL1       -0.1217
      3 N          16.1301   37.9711   29.7683 N.ar    1  UNL1       -0.1278
      4 C          15.4221   38.6378   30.6465 C.ar    1  UNL1        0.1738
      5 N          14.0943   38.4629   30.3239 N.ar    1  UNL1       -0.2482
      6 C          13.1132   39.0516   31.0767 C.ar    1  UNL1        0.1782
      7 N          13.4075   39.7933   32.1191 N.ar    1  UNL1       -0.2155
      8 C          14.6627   40.0148   32.5021 C.ar    1  UNL1        0.1152
      9 C          15.7618   39.4721   31.8198 C.ar    1  UNL1        0.0565
     10 C          17.0746   39.8035   32.3599 C.ar    1  UNL1       -0.0105
     11 C          17.1075   40.5956   33.4570 C.ar    1  UNL1        0.0345
     12 S          15.4100   40.9316   33.8272 S.2     1  UNL1       -0.0701
     13 C          18.3350   41.0616   34.1766 C.3     1  UNL1        0.1745
     14 O          19.4677   40.7959   33.3340 O.3     1  UNL1       -0.3529
     15 C          19.4859   39.4680   32.8039 C.3     1  UNL1        0.0973
     16 C          18.3835   39.3038   31.7533 C.3     1  UNL1        0.0540
     17 C          19.2568   38.4685   33.9395 C.3     1  UNL1        0.0300
     18 C          20.8463   39.1983   32.1578 C.3     1  UNL1        0.0276
     19 C          20.6837   39.1256   30.6381 C.3     1  UNL1        0.0025
     20 S          12.6729   37.0884   28.3416 S.3     1  UNL1       -0.0633
     21 C          12.8021   37.8928   26.7208 C.3     1  UNL1        0.1743
     22 C          11.4433   37.9336   26.0704 C.2     1  UNL1        0.3286
     23 O          11.0046   36.9485   25.5254 O.2     1  UNL1       -0.2491
     24 O          10.7204   39.0643   26.0965 O.3     1  UNL1       -0.4479
     25 C          10.3733   39.6545   24.8160 C.3     1  UNL1        0.2085
     26 C          10.3282   41.1777   24.9520 C.3     1  UNL1        0.0474
     27 C          10.4153   41.8165   23.5645 C.3     1  UNL1        0.0038
     28 C          12.0036   42.7018   21.8511 C.3     1  UNL1        0.0000
     29 C          11.8394   42.3213   23.3239 C.3     1  UNL1        0.0001
     30 S          11.4240   38.8083   30.6382 S.3     1  UNL1       -0.0769
     31 C          10.7876   40.4827   30.8981 C.3     1  UNL1        0.0651
     32 C           9.8390   40.8507   29.7554 C.3     1  UNL1        0.0121
     33 C           9.2912   42.2613   29.9816 C.3     1  UNL1        0.0009
@<TRIPOS>BOND
     1    28    29    1
     2    29    27    1
     3    27    26    1
     4    26    25    1
     5    25    24    1
     6    24    22    1
     7    22    23    2
     8    22    21    1
     9    21    20    1
    10    20     1    1
    11     1     5   ar
    12     1     2   ar
    13     2     3   ar
    14     3     4   ar
    15     4     9   ar
    16     4     5   ar
    17     5     6   ar
    18     6     7   ar
    19     6    30    1
    20     7     8   ar
    21     8    12   ar
    22     8     9   ar
    23     9    10   ar
    24    10    16    1
    25    10    11   ar
    26    11    12   ar
    27    11    13    1
    28    13    14    1
    29    14    15    1
    30    15    16    1
    31    15    17    1
    32    15    18    1
    33    18    19    1
    34    30    31    1
    35    31    32    1
    36    32    33    1
@<TRIPOS>MOLECULE
ZINC17063569
 38 42 0 0 0
SMALL
GASTEIGER

@<TRIPOS>ATOM
      1 C          26.0385   35.9758   30.6122 C.3     1  UNL1        0.2980
      2 O          26.4545   37.3225   30.3431 O.3     1  UNL1       -0.3073
      3 C          25.2509   38.1026   30.1253 C.3     1  UNL1        0.2055
      4 C          24.9760   38.0762   28.6186 C.3     1  UNL1        0.1773
      5 C          23.5215   38.4544   28.3391 C.3     1  UNL1        0.1748
      6 C          22.6148   37.4522   29.0637 C.3     1  UNL1        0.1768
      7 O          22.8747   37.5461   30.4639 O.3     1  UNL1       -0.3259
      8 C          24.1928   37.2729   30.8779 C.3     1  UNL1        0.2695
      9 O          24.5988   35.9222   30.5931 O.3     1  UNL1       -0.2852
     10 C          26.6020   35.0400   29.5410 C.3     1  UNL1        0.0962
     11 O          26.5169   35.5732   31.8971 O.3     1  UNL1       -0.3126
     12 C          27.2495   36.5643   33.9760 C.3     1  UNL1        0.0348
     13 C          27.4766   36.4661   32.4661 C.3     1  UNL1        0.1471
     14 C          21.1482   37.7897   28.7873 C.3     1  UNL1        0.1747
     15 O          20.4011   37.6976   30.0020 O.3     1  UNL1       -0.3463
     16 C          19.4316   38.7341   30.1681 C.3     1  UNL1        0.1687
     17 C          19.3412   39.1086   31.6250 C.ar    1  UNL1        0.0073
     18 C          18.1118   39.1383   32.2560 C.ar    1  UNL1       -0.0019
     19 C          18.0295   39.4768   33.5938 C.ar    1  UNL1       -0.0002
     20 C          19.1755   39.7966   34.2975 C.ar    1  UNL1       -0.0000
     21 C          20.4044   39.7719   33.6651 C.ar    1  UNL1       -0.0002
     22 C          20.4873   39.4280   32.3288 C.ar    1  UNL1       -0.0019
     23 O          23.2654   39.7738   28.8244 O.3     1  UNL1       -0.3463
     24 C          23.0764   40.7457   27.7939 C.3     1  UNL1        0.1687
     25 C          23.5797   42.0847   28.2677 C.ar    1  UNL1        0.0073
     26 C          24.9266   42.2671   28.5195 C.ar    1  UNL1       -0.0019
     27 C          25.3890   43.4966   28.9501 C.ar    1  UNL1       -0.0002
     28 C          24.5032   44.5412   29.1374 C.ar    1  UNL1       -0.0000
     29 C          23.1556   44.3573   28.8905 C.ar    1  UNL1       -0.0002
     30 C          22.6938   43.1291   28.4559 C.ar    1  UNL1       -0.0019
     31 O          25.8411   39.0059   27.9634 O.3     1  UNL1       -0.3462
     32 C          26.1923   38.6324   26.6295 C.3     1  UNL1        0.1687
     33 C          25.7417   39.7055   25.6723 C.ar    1  UNL1        0.0073
     34 C          26.3983   40.9214   25.6384 C.ar    1  UNL1       -0.0019
     35 C          25.9881   41.9042   24.7569 C.ar    1  UNL1       -0.0002
     36 C          24.9150   41.6744   23.9163 C.ar    1  UNL1       -0.0000
     37 C          24.2548   40.4605   23.9542 C.ar    1  UNL1       -0.0002
     38 C          24.6683   39.4759   24.8320 C.ar    1  UNL1       -0.0019
@<TRIPOS>BOND
     1    12    13    1
     2    13    11    1
     3    11     1    1
     4     1     9    1
     5     1     2    1
     6     1    10    1
     7     2     3    1
     8     3     8    1
     9     3     4    1
    10     4     5    1
    11     4    31    1
    12     5     6    1
    13     5    23    1
    14     6     7    1
    15     6    14    1
    16     7     8    1
    17     8     9    1
    18    14    15    1
    19    15    16    1
    20    16    17    1
    21    17    22   ar
    22    17    18   ar
    23    18    19   ar
    24    19    20   ar
    25    20    21   ar
    26    21    22   ar
    27    23    24    1
    28    24    25    1
    29    25    30   ar
    30    25    26   ar
    31    26    27   ar
    32    27    28   ar
    33    28    29   ar
    34    29    30   ar
    35    31    32    1
    36    32    33    1
    37    33    38   ar
    38    33    34   ar
    39    34    35   ar
    40    35    36   ar
    41    36    37   ar
    42    37    38   ar
@<TRIPOS>MOLECULE
ZINC27740440
 33 36 0 0 0
SMALL
GASTEIGER

@<TRIPOS>ATOM
      1 N          26.3577   34.9451   31.0441 N.ar    1  UNL1       -0.2757
      2 C          26.5710   33.6220   30.8581 C.ar    1  UNL1        0.2637
      3 O          26.5331   32.8399   31.7897 O.2     1  UNL1       -0.2669
      4 C          26.8502   33.1630   29.4880 C.ar    1  UNL1        0.0739
      5 C          27.0831   31.8188   29.1993 C.ar    1  UNL1        0.0065
      6 C          27.3395   31.4332   27.9149 C.ar    1  UNL1        0.0067
      7 C          27.3703   32.3767   26.8797 C.ar    1  UNL1        0.0771
      8 C          27.1411   33.7210   27.1445 C.ar    1  UNL1        0.0258
      9 C          26.8781   34.1277   28.4557 C.ar    1  UNL1        0.0882
     10 N          26.6493   35.4269   28.7602 N.ar    1  UNL1       -0.2224
     11 C          26.3979   35.8096   29.9879 C.ar    1  UNL1        0.1734
     12 C          27.6495   31.9383   25.4945 C.2     1  UNL1        0.3414
     13 O          26.7529   31.9039   24.6762 O.2     1  UNL1       -0.2449
     14 O          28.8980   31.5772   25.1412 O.3     1  UNL1       -0.4413
     15 C          29.9940   32.2258   25.8388 C.3     1  UNL1        0.2560
     16 C          26.0752   35.4533   32.3887 C.3     1  UNL1        0.1109
     17 C          27.0980   34.6522   34.5229 C.3     1  UNL1        0.0020
     18 C          27.3556   35.4212   33.2255 C.3     1  UNL1        0.0228
     19 C          27.7841   36.8520   33.5572 C.3     1  UNL1        0.0020
     20 S          26.1047   37.5203   30.2910 S.3     1  UNL1       -0.0773
     21 C          24.8007   37.8358   29.0760 C.3     1  UNL1        0.0656
     22 C          23.4658   37.3164   29.6139 C.3     1  UNL1        0.0219
     23 C          22.3500   37.6564   28.6239 C.3     1  UNL1        0.0890
     24 C          21.1027   38.0311   29.3821 C.ar    1  UNL1        0.2366
     25 N          21.0509   38.5971   30.5616 N.ar    1  UNL1       -0.1903
     26 C          19.7334   38.7423   30.8377 C.ar    1  UNL1        0.2093
     27 N          19.0701   38.2589   29.8162 N.ar    1  UNL1       -0.0555
     28 O          19.8423   37.8530   28.9735 O.2     1  UNL1       -0.3370
     29 C          19.1529   39.3334   32.0608 C.ar    1  UNL1        0.0685
     30 C          17.8417   39.3908   32.4533 C.ar    1  UNL1        0.0102
     31 C          17.5352   39.9961   33.6508 C.ar    1  UNL1        0.0076
     32 C          18.5369   40.5262   34.4002 C.ar    1  UNL1        0.0355
     33 S          19.9767   40.1660   33.4082 S.2     1  UNL1       -0.0832
@<TRIPOS>BOND
     1    17    18    1
     2    18    19    1
     3    18    16    1
     4    16     1    1
     5     1    11   ar
     6     1     2   ar
     7     2     3    2
     8     2     4   ar
     9     4     9   ar
    10     4     5   ar
    11     5     6   ar
    12     6     7   ar
    13     7     8   ar
    14     7    12    1
    15     8     9   ar
    16     9    10   ar
    17    10    11   ar
    18    11    20    1
    19    20    21    1
    20    21    22    1
    21    22    23    1
    22    23    24    1
    23    24    28   ar
    24    24    25   ar
    25    25    26   ar
    26    26    27   ar
    27    26    29    1
    28    27    28   ar
    29    29    33   ar
    30    29    30   ar
    31    30    31   ar
    32    31    32   ar
    33    32    33   ar
    34    12    13    2
    35    12    14    1
    36    14    15    1
@<TRIPOS>MOLECULE
ZINC15414667
 38 41 0 0 0
SMALL
GASTEIGER

@<TRIPOS>ATOM
      1 C          24.2538   39.7614   25.6746 C.3     1  UNL1        0.0024
      2 C          25.3242   39.0169   26.4786 C.3     1  UNL1        0.0250
      3 C          26.0141   38.0204   25.5414 C.3     1  UNL1        0.0023
      4 C          27.1020   37.2500   26.2967 C.3     1  UNL1        0.0003
      5 C          26.4544   36.5319   27.4798 C.3     1  UNL1        0.0068
      6 C          25.8372   37.5394   28.4351 C.3     1  UNL1        0.0231
      7 C          24.7281   38.3121   27.6829 C.3     1  UNL1        0.0926
      8 C          23.6186   37.3267   27.2795 C.3     1  UNL1        0.0297
      9 C          22.3142   38.1176   27.5387 C.3     1  UNL1        0.0335
     10 C          22.7216   39.2024   28.5504 C.3     1  UNL1        0.1364
     11 O          24.1484   39.2237   28.6244 O.3     1  UNL1       -0.3595
     12 C          25.2304   36.8485   29.6542 C.3     1  UNL1        0.0047
     13 C          26.2719   35.9530   30.3337 C.3     1  UNL1        0.0298
     14 C          26.7202   34.8843   29.3448 C.3     1  UNL1        0.1198
     15 C          27.3870   35.5299   28.1226 C.3     1  UNL1        0.0526
     16 C          27.6683   34.3627   27.1515 C.3     1  UNL1        0.1468
     17 O          28.5388   33.4459   27.8130 O.3     1  UNL1       -0.3342
     18 C          28.1225   32.9425   29.0769 C.3     1  UNL1        0.1872
     19 O          27.6431   33.9767   29.9356 O.3     1  UNL1       -0.3367
     20 C          29.3316   32.2742   29.7544 C.3     1  UNL1        0.0612
     21 C          27.0374   31.8797   28.8808 C.3     1  UNL1        0.0612
     22 C          28.7352   36.1325   28.5101 C.3     1  UNL1        0.0049
     23 C          26.8465   38.5810   28.9272 C.3     1  UNL1        0.0023
     24 C          22.1416   38.8460   29.9276 C.3     1  UNL1        0.0783
     25 C          20.6191   38.9932   29.8933 C.3     1  UNL1        0.2110
     26 O          20.1532   39.5014   31.1713 O.3     1  UNL1       -0.4484
     27 C          19.3143   38.7194   31.8688 C.2     1  UNL1        0.3164
     28 O          18.6946   37.8469   31.3078 O.2     1  UNL1       -0.2501
     29 C          19.1406   38.9337   33.3503 C.3     1  UNL1        0.0991
     30 C          20.4671   39.3941   33.9580 C.3     1  UNL1        0.0116
     31 C          18.0720   40.0023   33.5893 C.3     1  UNL1        0.0116
     32 C          22.1729   40.5646   28.1255 C.3     1  UNL1        0.2353
     33 O          23.2767   41.4740   27.8743 O.3     1  UNL1       -0.4459
     34 C          23.0924   42.7619   28.2046 C.2     1  UNL1        0.3165
     35 O          22.0083   43.1400   28.5809 O.2     1  UNL1       -0.2501
     36 C          24.2377   43.7364   28.1061 C.3     1  UNL1        0.0991
     37 C          24.4794   44.3791   29.4733 C.3     1  UNL1        0.0116
     38 C          25.5003   42.9961   27.6601 C.3     1  UNL1        0.0116
@<TRIPOS>BOND
     1     1     2    1
     2     2     7    1
     3     2     3    1
     4     3     4    1
     5     4     5    1
     6     5    15    1
     7     5     6    1
     8     6     7    1
     9     6    12    1
    10     6    23    1
    11     7    11    1
    12     7     8    1
    13     8     9    1
    14     9    10    1
    15    10    11    1
    16    10    24    1
    17    10    32    1
    18    24    25    1
    19    25    26    1
    20    26    27    1
    21    27    28    2
    22    27    29    1
    23    29    30    1
    24    29    31    1
    25    32    33    1
    26    33    34    1
    27    34    35    2
    28    34    36    1
    29    36    37    1
    30    36    38    1
    31    12    13    1
    32    13    14    1
    33    14    19    1
    34    14    15    1
    35    15    16    1
    36    15    22    1
    37    16    17    1
    38    17    18    1
    39    18    19    1
    40    18    20    1
    41    18    21    1
@<TRIPOS>MOLECULE
ZINC20053411
 36 39 0 0 0
SMALL
GASTEIGER

@<TRIPOS>ATOM
      1 C          25.4290   39.0308   29.3944 C.ar    1  UNL1        0.1023
      2 C          24.2217   38.2269   29.6166 C.ar    1  UNL1        0.0383
      3 C          24.6533   36.9959   30.0748 C.ar    1  UNL1        0.0969
      4 N          25.9942   37.0262   30.1335 N.ar    1  UNL1       -0.2449
      5 N          26.4558   38.2788   29.7199 N.ar    1  UNL1       -0.1689
      6 C          25.6253   44.4584   27.4816 C.3     1  UNL1        0.0310
      7 C          25.5743   43.0377   27.9819 C.ar    1  UNL1       -0.0218
      8 C          24.7598   42.1142   27.3517 C.ar    1  UNL1       -0.0042
      9 C          24.7087   40.8120   27.8057 C.ar    1  UNL1        0.0012
     10 C          25.4800   40.4280   28.9016 C.ar    1  UNL1        0.0194
     11 C          26.2949   41.3645   29.5360 C.ar    1  UNL1        0.0012
     12 C          26.3419   42.6625   29.0698 C.ar    1  UNL1       -0.0042
     13 C          22.8328   38.6460   29.3957 C.2     1  UNL1        0.0097
     14 C          21.8491   37.7199   29.3317 C.2     1  UNL1        0.0820
     15 C          20.5095   38.1240   29.1187 C.2     1  UNL1        0.3418
     16 O          20.2361   38.8573   28.1869 O.2     1  UNL1       -0.2449
     17 O          19.5354   37.6961   29.9489 O.3     1  UNL1       -0.4372
     18 C          19.0099   38.6471   30.8771 C.3     1  UNL1        0.2739
     19 C          17.5103   38.7068   30.7402 C.2     1  UNL1        0.2145
     20 O          16.9957   38.5468   29.6595 O.2     1  UNL1       -0.2906
     21 C          16.6529   38.9662   31.9520 C.3     1  UNL1        0.1980
     22 C          17.4457   39.7425   32.9717 C.ar    1  UNL1        0.1090
     23 N          18.5068   39.3699   33.6493 N.ar    1  UNL1       -0.2455
     24 C          19.0915   40.1777   34.5090 C.ar    1  UNL1        0.0661
     25 C          18.5637   41.4147   34.6937 C.ar    1  UNL1        0.0513
     26 S          17.1858   41.3567   33.5573 S.2     1  UNL1       -0.0692
     27 C          20.3129   39.7375   35.2742 C.3     1  UNL1        0.0527
     28 C          15.4673   39.7440   31.5567 C.1     1  UNL1        0.0864
     29 N          14.5523   40.3443   31.2517 N.1     1  UNL1       -0.1950
     30 C          26.8445   35.9163   30.5711 C.3     1  UNL1        0.1538
     31 C          26.9344   34.8890   29.4721 C.ar    1  UNL1        0.0021
     32 C          26.9908   35.2929   28.1513 C.ar    1  UNL1       -0.0023
     33 C          27.0679   34.3503   27.1431 C.ar    1  UNL1       -0.0003
     34 C          27.0986   33.0043   27.4561 C.ar    1  UNL1       -0.0000
     35 C          27.0431   32.6004   28.7770 C.ar    1  UNL1       -0.0003
     36 C          26.9611   33.5428   29.7850 C.ar    1  UNL1       -0.0023
@<TRIPOS>BOND
     1     6     7    1
     2     7    12   ar
     3     7     8   ar
     4     8     9   ar
     5     9    10   ar
     6    10    11   ar
     7    10     1    1
     8    11    12   ar
     9     1     5   ar
    10     1     2   ar
    11     2     3   ar
    12     2    13    1
    13     3     4   ar
    14     4     5   ar
    15     4    30    1
    16    30    31    1
    17    31    36   ar
    18    31    32   ar
    19    32    33   ar
    20    33    34   ar
    21    34    35   ar
    22    35    36   ar
    23    13    14    2
    24    14    15    1
    25    15    16    2
    26    15    17    1
    27    17    18    1
    28    18    19    1
    29    19    20    2
    30    19    21    1
    31    21    28    1
    32    21    22    1
    33    28    29    3
    34    22    26   ar
    35    22    23   ar
    36    23    24   ar
    37    24    25   ar
    38    24    27    1
    39    25    26   ar
@<TRIPOS>MOLECULE
ZINC00693110
 37 40 0 0 0
SMALL
GASTEIGER

@<TRIPOS>ATOM
      1 N          27.1794   36.7971   28.3359 N.3     1  UNL1       -0.1438
      2 S          28.5598   35.8939   28.1898 S.O2    1  UNL1        0.0632
      3 O          29.1357   36.2324   26.9357 O.2     1  UNL1       -0.1528
      4 O          29.2666   36.0314   29.4147 O.2     1  UNL1       -0.1528
      5 C          26.8753   30.1125   27.8104 C.3     1  UNL1        0.0310
      6 C          27.2962   31.5565   27.9051 C.ar    1  UNL1       -0.0224
      7 C          27.9883   32.0033   29.0151 C.ar    1  UNL1       -0.0072
      8 C          28.3738   33.3279   29.1022 C.ar    1  UNL1       -0.0039
      9 C          28.0681   34.2055   28.0789 C.ar    1  UNL1        0.1142
     10 C          27.3719   33.7597   26.9710 C.ar    1  UNL1       -0.0039
     11 C          26.9896   32.4343   26.8821 C.ar    1  UNL1       -0.0072
     12 C          27.0332   34.7177   25.8581 C.3     1  UNL1        0.0324
     13 C          29.1280   33.8152   30.3126 C.3     1  UNL1        0.0324
     14 C          25.9790   36.2086   28.9350 C.3     1  UNL1        0.1258
     15 C          26.0055   36.4264   30.4492 C.3     1  UNL1        0.1330
     16 C          25.9733   35.0703   31.1883 C.3     1  UNL1        0.0336
     17 C          25.0914   35.3392   32.4280 C.3     1  UNL1        0.0346
     18 C          24.6951   36.8260   32.2915 C.3     1  UNL1        0.1422
     19 O          24.8083   37.1099   30.8799 O.3     1  UNL1       -0.3548
     20 C          27.1586   38.1844   27.8658 C.3     1  UNL1        0.1806
     21 C          25.8383   38.4684   27.1971 C.2     1  UNL1        0.2442
     22 O          25.5448   37.8983   26.1677 O.2     1  UNL1       -0.2733
     23 N          24.9835   39.3560   27.7431 N.am    1  UNL1       -0.2696
     24 C          23.7000   39.6321   27.0931 C.3     1  UNL1        0.1205
     25 C          22.5754   39.1925   27.9948 C.ar    1  UNL1       -0.0022
     26 C          21.7650   40.1359   28.5983 C.ar    1  UNL1       -0.0003
     27 C          20.7305   39.7338   29.4216 C.ar    1  UNL1        0.0294
     28 C          20.5123   38.3858   29.6504 C.ar    1  UNL1        0.1401
     29 C          21.3280   37.4420   29.0495 C.ar    1  UNL1        0.0294
     30 C          22.3586   37.8462   28.2224 C.ar    1  UNL1       -0.0003
     31 F          19.5043   37.9917   30.4588 F       1  UNL1       -0.2042
     32 C          25.3380   40.0447   28.9866 C.3     1  UNL1        0.1269
     33 C          25.6431   41.4906   28.6907 C.ar    1  UNL1        0.0273
     34 C          24.8521   42.5797   28.8495 C.ar    1  UNL1        0.0044
     35 C          25.3483   43.8240   28.5083 C.ar    1  UNL1        0.0072
     36 C          26.6111   43.9182   28.0250 C.ar    1  UNL1        0.0352
     37 S          27.1430   42.2140   28.0473 S.2     1  UNL1       -0.0891
@<TRIPOS>BOND
     1     5     6    1
     2     6    11   ar
     3     6     7   ar
     4     7     8   ar
     5     8     9   ar
     6     8    13    1
     7     9    10   ar
     8     9     2    1
     9    10    11   ar
    10    10    12    1
    11     2     3    2
    12     2     4    2
    13     2     1    1
    14     1    14    1
    15     1    20    1
    16    14    15    1
    17    15    19    1
    18    15    16    1
    19    16    17    1
    20    17    18    1
    21    18    19    1
    22    20    21    1
    23    21    22    2
    24    21    23   am
    25    23    24    1
    26    23    32    1
    27    24    25    1
    28    25    30   ar
    29    25    26   ar
    30    26    27   ar
    31    27    28   ar
    32    28    29   ar
    33    28    31    1
    34    29    30   ar
    35    32    33    1
    36    33    37   ar
    37    33    34   ar
    38    34    35   ar
    39    35    36   ar
    40    36    37   ar
@<TRIPOS>MOLECULE
ZINC08980286
 38 41 0 0 0
SMALL
GASTEIGER

@<TRIPOS>ATOM
      1 C          22.7019   39.2973   28.7143 C.ar    1  UNL1        0.1151
      2 C          24.0740   39.0755   28.9293 C.ar    1  UNL1        0.1470
      3 N          24.9299   40.0784   28.8809 N.ar    1  UNL1       -0.2279
      4 C          24.4861   41.3166   28.6304 C.ar    1  UNL1        0.1003
      5 C          25.3726   42.4053   28.5730 C.ar    1  UNL1        0.0207
      6 C          24.8933   43.6535   28.3174 C.ar    1  UNL1        0.0016
      7 C          23.5325   43.8696   28.1102 C.ar    1  UNL1        0.0016
      8 C          22.6448   42.8388   28.1584 C.ar    1  UNL1        0.0206
      9 C          23.1025   41.5363   28.4203 C.ar    1  UNL1        0.0987
     10 N          22.2506   40.5044   28.4737 N.ar    1  UNL1       -0.2437
     11 N          24.5314   37.7923   29.1886 N.pl3   1  UNL1       -0.2888
     12 C          24.5716   37.5295   30.6339 C.3     1  UNL1        0.1136
     13 C          25.0042   36.0813   30.8746 C.3     1  UNL1        0.1123
     14 N          26.3228   35.8589   30.2650 N.pl3   1  UNL1       -0.3041
     15 C          26.2826   36.1218   28.8197 C.3     1  UNL1        0.1123
     16 C          25.8500   37.5700   28.5789 C.3     1  UNL1        0.1136
     17 C          26.7834   34.5664   30.5261 C.ar    1  UNL1        0.0479
     18 C          27.2195   34.2270   31.8008 C.ar    1  UNL1        0.0145
     19 C          27.6702   32.9471   32.0564 C.ar    1  UNL1        0.0012
     20 C          27.6973   32.0064   31.0429 C.ar    1  UNL1        0.0039
     21 C          27.2686   32.3422   29.7722 C.ar    1  UNL1        0.0726
     22 C          26.8120   33.6194   29.5106 C.ar    1  UNL1        0.0184
     23 C          27.2999   31.3139   28.6709 C.3     1  UNL1        0.4186
     24 F          26.4754   30.2372   29.0147 F       1  UNL1       -0.1659
     25 F          26.8421   31.8905   27.4813 F       1  UNL1       -0.1659
     26 F          28.6112   30.8594   28.4945 F       1  UNL1       -0.1659
     27 C          21.7410   38.1377   28.7672 C.3     1  UNL1        0.2319
     28 C          20.5483   38.5116   29.6091 C.2     1  UNL1        0.3369
     29 O          19.5104   38.8302   29.0788 O.2     1  UNL1       -0.2485
     30 O          20.6389   38.4907   30.9482 O.3     1  UNL1       -0.4475
     31 C          19.8861   39.4968   31.6756 C.3     1  UNL1        0.2085
     32 C          18.8634   38.8110   32.5837 C.3     1  UNL1        0.0474
     33 C          19.3644   38.8397   34.0290 C.3     1  UNL1        0.0038
     34 C          20.5486   39.8023   34.1393 C.3     1  UNL1        0.0001
     35 C          19.0231   41.4863   35.1783 C.3     1  UNL1        0.0000
     36 C          20.3427   40.7288   35.3393 C.3     1  UNL1        0.0000
     37 C          21.2949   37.8076   27.4037 C.1     1  UNL1        0.0898
     38 N          20.9508   37.5527   26.3515 N.1     1  UNL1       -0.1949
@<TRIPOS>BOND
     1    35    36    1
     2    36    34    1
     3    34    33    1
     4    33    32    1
     5    32    31    1
     6    31    30    1
     7    30    28    1
     8    28    29    2
     9    28    27    1
    10    27    37    1
    11    27     1    1
    12    37    38    3
    13     1    10   ar
    14     1     2   ar
    15     2     3   ar
    16     2    11    1
    17     3     4   ar
    18     4     9   ar
    19     4     5   ar
    20     5     6   ar
    21     6     7   ar
    22     7     8   ar
    23     8     9   ar
    24     9    10   ar
    25    11    16    1
    26    11    12    1
    27    12    13    1
    28    13    14    1
    29    14    15    1
    30    14    17    1
    31    15    16    1
    32    17    22   ar
    33    17    18   ar
    34    18    19   ar
    35    19    20   ar
    36    20    21   ar
    37    21    22   ar
    38    21    23    1
    39    23    24    1
    40    23    25    1
    41    23    26    1
@<TRIPOS>MOLECULE
ZINC09524827
 36 39 0 0 0
SMALL
GASTEIGER

@<TRIPOS>ATOM
      1 C          20.3279   38.3401   29.8884 C.2     1  UNL1        0.2544
      2 O          19.6644   37.5891   29.2005 O.2     1  UNL1       -0.2695
      3 N          19.7185   39.1937   30.7348 N.am    1  UNL1       -0.2308
      4 C          18.3513   39.1095   30.9381 C.ar    1  UNL1        0.1694
      5 N          17.4222   38.6782   30.1176 N.ar    1  UNL1       -0.2214
      6 C          16.1135   38.6518   30.4523 C.ar    1  UNL1        0.1166
      7 C          15.0191   38.2142   29.6676 C.ar    1  UNL1        0.1582
      8 C          13.7406   38.2543   30.1646 C.ar    1  UNL1        0.0312
      9 C          13.4749   38.7211   31.4440 C.ar    1  UNL1        0.0029
     10 C          14.5205   39.1561   32.2371 C.ar    1  UNL1        0.0082
     11 C          15.8036   39.1199   31.7488 C.ar    1  UNL1        0.0519
     12 S          17.4040   39.5528   32.3873 S.2     1  UNL1       -0.0511
     13 F          15.2358   37.7526   28.4165 F       1  UNL1       -0.2026
     14 C          24.5669   38.2839   29.6309 C.ar    1  UNL1        0.1222
     15 C          23.8263   38.9309   28.6576 C.ar    1  UNL1        0.0201
     16 C          22.4491   38.9513   28.7341 C.ar    1  UNL1        0.0059
     17 C          21.8027   38.3172   29.7966 C.ar    1  UNL1        0.0540
     18 C          22.5561   37.6662   30.7753 C.ar    1  UNL1        0.0059
     19 C          23.9326   37.6530   30.6864 C.ar    1  UNL1        0.0201
     20 S          26.3256   38.2627   29.5254 S.O2    1  UNL1        0.0639
     21 O          26.7185   39.5369   29.0342 O.2     1  UNL1       -0.1528
     22 O          26.8002   37.7426   30.7597 O.2     1  UNL1       -0.1528
     23 N          26.7328   37.1597   28.3593 N.3     1  UNL1       -0.1466
     24 C          26.5560   35.7275   28.6121 C.3     1  UNL1        0.1222
     25 C          27.0709   33.6488   27.4395 C.2     1  UNL1       -0.0034
     26 C          27.2791   34.9372   27.5521 C.2     1  UNL1       -0.0071
     27 C          27.2698   37.6159   27.0749 C.3     1  UNL1        0.1222
     28 C          26.1376   37.8228   26.1021 C.2     1  UNL1       -0.0071
     29 C          26.2212   38.7586   25.1892 C.2     1  UNL1       -0.0034
     30 C          20.5026   40.2108   31.4399 C.3     1  UNL1        0.1269
     31 C          20.3174   40.0466   32.9264 C.ar    1  UNL1       -0.0019
     32 C          20.3952   38.7903   33.4979 C.ar    1  UNL1       -0.0026
     33 C          20.2305   38.6403   34.8623 C.ar    1  UNL1       -0.0003
     34 C          19.9771   39.7451   35.6535 C.ar    1  UNL1       -0.0000
     35 C          19.8937   41.0006   35.0811 C.ar    1  UNL1       -0.0003
     36 C          20.0641   41.1514   33.7176 C.ar    1  UNL1       -0.0026
@<TRIPOS>BOND
     1    25    26    2
     2    26    24    1
     3    24    23    1
     4    23    27    1
     5    23    20    1
     6    27    28    1
     7    28    29    2
     8    20    21    2
     9    20    22    2
    10    20    14    1
    11    14    19   ar
    12    14    15   ar
    13    15    16   ar
    14    16    17   ar
    15    17    18   ar
    16    17     1    1
    17    18    19   ar
    18     1     2    2
    19     1     3   am
    20     3    30    1
    21     3     4    1
    22    30    31    1
    23    31    36   ar
    24    31    32   ar
    25    32    33   ar
    26    33    34   ar
    27    34    35   ar
    28    35    36   ar
    29     4    12   ar
    30     4     5   ar
    31     5     6   ar
    32     6    11   ar
    33     6     7   ar
    34     7     8   ar
    35     7    13    1
    36     8     9   ar
    37     9    10   ar
    38    10    11   ar
    39    11    12   ar
@<TRIPOS>MOLECULE
ZINC15319425
 36 39 0 0 0
SMALL
GASTEIGER

@<TRIPOS>ATOM
      1 C          21.9970   39.4561   29.2316 C.2     1  UNL1        0.0473
      2 C          22.6879   40.4943   28.7300 C.3     1  UNL1        0.1430
      3 C          24.1070   40.3364   28.2717 C.3     1  UNL1        0.0644
      4 C          24.7202   39.0772   28.8305 C.2     1  UNL1        0.0312
      5 C          23.9410   38.0907   29.3217 C.2     1  UNL1        0.0577
      6 N          22.5784   38.2237   29.3381 N.2     1  UNL1       -0.2579
      7 C          24.5465   36.8206   29.8669 C.3     1  UNL1        0.0514
      8 C          25.9212   37.1266   30.4702 C.3     1  UNL1        0.0523
      9 C          26.8038   37.7393   29.3776 C.3     1  UNL1        0.1650
     10 C          26.1211   38.9603   28.8242 C.2     1  UNL1        0.1812
     11 O          26.7929   39.8620   28.3638 O.2     1  UNL1       -0.2910
     12 C          24.1310   40.2727   26.7662 C.ar    1  UNL1       -0.0174
     13 C          24.7017   41.3010   26.0399 C.ar    1  UNL1       -0.0043
     14 C          24.7276   41.2406   24.6591 C.ar    1  UNL1       -0.0046
     15 C          24.1742   40.1562   24.0043 C.ar    1  UNL1       -0.0219
     16 C          23.5993   39.1300   24.7305 C.ar    1  UNL1       -0.0046
     17 C          23.5773   39.1885   26.1115 C.ar    1  UNL1       -0.0043
     18 C          24.1984   40.0923   22.4989 C.3     1  UNL1        0.0310
     19 C          26.5484   35.8513   30.9718 C.ar    1  UNL1        0.0083
     20 C          26.0662   34.5856   30.9213 C.ar    1  UNL1        0.0027
     21 C          26.8257   33.5574   31.4474 C.ar    1  UNL1        0.0072
     22 C          28.0255   33.8469   32.0079 C.ar    1  UNL1        0.0351
     23 S          28.1158   35.6170   31.7937 S.2     1  UNL1       -0.0908
     24 C          27.0114   36.7339   28.2743 C.2     1  UNL1        0.3243
     25 O          27.9894   36.0246   28.2795 O.2     1  UNL1       -0.2496
     26 O          26.1096   36.6265   27.2859 O.3     1  UNL1       -0.4482
     27 C          26.6251   36.4898   25.9353 C.3     1  UNL1        0.2086
     28 C          26.9909   37.8706   25.3869 C.3     1  UNL1        0.0513
     29 C          22.0656   41.7610   28.6356 C.2     1  UNL1        0.3225
     30 O          21.0890   41.9077   27.9247 O.2     1  UNL1       -0.2497
     31 O          22.5549   42.8069   29.3341 O.3     1  UNL1       -0.4482
     32 C          23.1637   43.8599   28.5843 C.3     1  UNL1        0.2086
     33 C          24.4467   44.3099   29.2860 C.3     1  UNL1        0.0513
     34 C          20.5715   39.6522   29.6795 C.3     1  UNL1        0.0419
     35 C          18.6952   38.6378   30.9807 C.3     1  UNL1        0.0004
     36 C          20.0751   38.3810   30.3714 C.3     1  UNL1        0.0060
@<TRIPOS>BOND
     1    35    36    1
     2    36    34    1
     3    34     1    1
     4     1     6    2
     5     1     2    1
     6     2     3    1
     7     2    29    1
     8     3     4    1
     9     3    12    1
    10     4    10    1
    11     4     5    2
    12     5     7    1
    13     5     6    1
    14     7     8    1
    15     8     9    1
    16     8    19    1
    17     9    10    1
    18     9    24    1
    19    10    11    2
    20    24    25    2
    21    24    26    1
    22    26    27    1
    23    27    28    1
    24    19    23   ar
    25    19    20   ar
    26    20    21   ar
    27    21    22   ar
    28    22    23   ar
    29    12    17   ar
    30    12    13   ar
    31    13    14   ar
    32    14    15   ar
    33    15    16   ar
    34    15    18    1
    35    16    17   ar
    36    29    30    2
    37    29    31    1
    38    31    32    1
    39    32    33    1
@<TRIPOS>MOLECULE
ZINC12588426
 37 40 0 0 0
SMALL
GASTEIGER

@<TRIPOS>ATOM
      1 C          22.3674   37.9762   29.3358 C.ar    1  UNL1        0.0786
      2 C          23.0818   37.0479   30.0803 C.ar    1  UNL1        0.0256
      3 C          24.4456   37.2668   30.3286 C.ar    1  UNL1        0.0816
      4 N          25.0809   38.3285   29.8783 N.ar    1  UNL1       -0.2454
      5 C          24.4731   39.2703   29.1552 C.ar    1  UNL1        0.0815
      6 C          23.0962   39.1448   28.8415 C.ar    1  UNL1        0.0239
      7 C          22.4638   40.1315   28.0773 C.ar    1  UNL1        0.0017
      8 C          23.1804   41.2043   27.6363 C.ar    1  UNL1        0.0001
      9 C          24.5349   41.3306   27.9374 C.ar    1  UNL1        0.0015
     10 C          25.1784   40.3947   28.6873 C.ar    1  UNL1        0.0191
     11 C          25.1969   36.2679   31.1248 C.ar    1  UNL1        0.0209
     12 C          24.9844   36.1676   32.4994 C.ar    1  UNL1        0.0048
     13 C          25.6799   35.2336   33.2389 C.ar    1  UNL1        0.0401
     14 C          26.6000   34.4003   32.6198 C.ar    1  UNL1        0.1724
     15 C          26.8207   34.4999   31.2480 C.ar    1  UNL1        0.1724
     16 C          26.1218   35.4306   30.5016 C.ar    1  UNL1        0.0415
     17 O          27.7230   33.6816   30.6431 O.3     1  UNL1       -0.4684
     18 C          27.2027   32.5629   29.9220 C.3     1  UNL1        0.2526
     19 O          27.2877   33.4856   33.3531 O.3     1  UNL1       -0.4684
     20 C          27.8953   33.9469   34.5614 C.3     1  UNL1        0.2526
     21 C          20.9297   37.7889   29.0486 C.2     1  UNL1        0.3418
     22 O          20.5626   36.8476   28.3746 O.2     1  UNL1       -0.2449
     23 O          20.0264   38.6622   29.5347 O.3     1  UNL1       -0.4331
     24 C          19.4453   38.3572   30.8299 C.3     1  UNL1        0.3170
     25 C          17.9878   38.7403   30.8294 C.2     1  UNL1        0.3620
     26 O          17.2303   38.2337   30.0361 O.2     1  UNL1       -0.2459
     27 O          17.5312   39.6444   31.7102 O.3     1  UNL1       -0.4497
     28 C          15.4375   40.9982   31.5312 C.3     1  UNL1        0.0001
     29 C          15.0416   40.4807   32.9155 C.3     1  UNL1        0.0036
     30 C          15.5818   41.4287   33.9881 C.3     1  UNL1        0.0002
     31 C          17.1068   41.4977   33.8864 C.3     1  UNL1        0.0036
     32 C          17.6957   40.1013   34.0965 C.3     1  UNL1        0.0402
     33 C          17.1554   39.1533   33.0240 C.3     1  UNL1        0.1688
     34 C          15.6303   39.0843   33.1257 C.3     1  UNL1        0.0436
     35 C          19.2208   40.1703   33.9949 C.3     1  UNL1        0.0035
     36 C          19.7274   41.3993   34.7523 C.3     1  UNL1        0.0001
     37 C          19.8303   38.9072   34.6064 C.3     1  UNL1        0.0001
@<TRIPOS>BOND
     1    28    29    1
     2    29    34    1
     3    29    30    1
     4    30    31    1
     5    31    32    1
     6    32    33    1
     7    32    35    1
     8    33    34    1
     9    33    27    1
    10    27    25    1
    11    25    26    2
    12    25    24    1
    13    24    23    1
    14    23    21    1
    15    21    22    2
    16    21     1    1
    17     1     6   ar
    18     1     2   ar
    19     2     3   ar
    20     3     4   ar
    21     3    11    1
    22     4     5   ar
    23     5    10   ar
    24     5     6   ar
    25     6     7   ar
    26     7     8   ar
    27     8     9   ar
    28     9    10   ar
    29    11    16   ar
    30    11    12   ar
    31    12    13   ar
    32    13    14   ar
    33    14    15   ar
    34    14    19    1
    35    15    16   ar
    36    15    17    1
    37    17    18    1
    38    19    20    1
    39    35    36    1
    40    35    37    1
@<TRIPOS>MOLECULE
ZINC27533019
 33 35 0 0 0
SMALL
GASTEIGER

@<TRIPOS>ATOM
      1 N          26.7587   38.9833   28.4886 N.ar    1  UNL1       -0.1773
      2 C          27.3879   37.8970   27.9950 C.ar    1  UNL1        0.1849
      3 S          28.0705   37.7475   26.4320 S.2     1  UNL1       -0.0110
      4 N          27.3851   36.9516   28.9558 N.ar    1  UNL1       -0.2912
      5 C          26.7332   37.4603   30.0618 C.ar    1  UNL1        0.1658
      6 N          26.3524   38.6781   29.7947 N.ar    1  UNL1       -0.1452
      7 C          26.5057   36.7437   31.3362 C.ar    1  UNL1        0.0464
      8 C          27.5624   36.5412   32.2243 C.ar    1  UNL1        0.0039
      9 C          27.3440   35.8727   33.4111 C.ar    1  UNL1        0.0002
     10 C          26.0800   35.4032   33.7223 C.ar    1  UNL1        0.0009
     11 C          25.0277   35.5996   32.8467 C.ar    1  UNL1        0.0115
     12 C          25.2316   36.2724   31.6576 C.ar    1  UNL1        0.0606
     13 CL         23.9085   36.5248   30.5626 Cl      1  UNL1       -0.0821
     14 C          26.5354   40.2489   27.7854 C.3     1  UNL1        0.2437
     15 C          25.6819   42.1989   28.9394 C.3     1  UNL1        0.1698
     16 N          25.3400   40.9070   28.3293 N.4     1  UNL1        0.3031
     17 H          24.9569   40.3070   29.0598 H       1  UNL1        0.2096
     18 C          24.3112   41.0698   27.2934 C.3     1  UNL1        0.1361
     19 C          23.4077   39.8638   27.2889 C.ar    1  UNL1        0.0449
     20 C          22.5833   39.6134   28.3699 C.ar    1  UNL1        0.0263
     21 C          21.7506   38.5103   28.3636 C.ar    1  UNL1        0.1428
     22 C          21.7493   37.6507   27.2808 C.ar    1  UNL1        0.0249
     23 C          22.5772   37.8967   26.2019 C.ar    1  UNL1        0.0130
     24 C          23.4071   39.0038   26.2054 C.ar    1  UNL1        0.0593
     25 CL         24.4469   39.3138   24.8502 Cl      1  UNL1       -0.0824
     26 N          20.8644   38.2457   29.5192 N.pl3   1  UNL1        0.0577
     27 O          21.0596   38.8138   30.5788 O.2     1  UNL1       -0.1261
     28 O          19.9401   37.4601   29.4105 O.2     1  UNL1       -0.1261
     29 C          27.9681   35.6124   28.8438 C.3     1  UNL1        0.1120
     30 C          26.9011   34.6309   28.3548 C.3     1  UNL1        0.0566
     31 C          27.5762   33.3569   27.8431 C.3     1  UNL1        0.1443
     32 O          27.0028   32.9851   26.5880 O.3     1  UNL1       -0.3510
     33 C          26.9872   34.0375   25.6215 C.3     1  UNL1        0.1741
@<TRIPOS>UNITY_ATOM_ATTR
16 1
charge 1
@<TRIPOS>BOND
     1    15    16    1
     2    16    18    1
     3    16    14    1
     4    18    19    1
     5    19    24   ar
     6    19    20   ar
     7    20    21   ar
     8    21    22   ar
     9    21    26    1
    10    22    23   ar
    11    23    24   ar
    12    24    25    1
    13    26    27    2
    14    26    28    2
    15    14     1    1
    16     1     6   ar
    17     1     2   ar
    18     2     3    2
    19     2     4   ar
    20     4     5   ar
    21     4    29    1
    22     5     6   ar
    23     5     7    1
    24     7    12   ar
    25     7     8   ar
    26     8     9   ar
    27     9    10   ar
    28    10    11   ar
    29    11    12   ar
    30    12    13    1
    31    29    30    1
    32    30    31    1
    33    31    32    1
    34    32    33    1
    35    16    17    1
@<TRIPOS>MOLECULE
ZINC25142423
 35 38 0 0 0
SMALL
GASTEIGER

@<TRIPOS>ATOM
      1 C          24.1323   38.3984   28.5703 C.ar    1  UNL1        0.1238
      2 C          24.0212   38.2486   29.9447 C.ar    1  UNL1        0.0215
      3 C          24.8216   37.3478   30.6166 C.ar    1  UNL1        0.0201
      4 C          25.7437   36.5864   29.9145 C.ar    1  UNL1        0.0792
      5 C          25.8605   36.7341   28.5226 C.ar    1  UNL1        0.1005
      6 C          25.0428   37.6510   27.8573 C.ar    1  UNL1        0.0405
      7 N          26.8281   35.8746   28.1086 N.ar    1  UNL1       -0.2211
      8 C          27.3052   35.2198   29.1387 C.ar    1  UNL1        0.1715
      9 N          26.6651   35.6179   30.2783 N.ar    1  UNL1       -0.3084
     10 C          26.9100   35.1167   31.6329 C.3     1  UNL1        0.0874
     11 C          25.5699   34.8136   32.3346 C.3     1  UNL1        0.0226
     12 C          25.8078   35.2378   33.8059 C.3     1  UNL1        0.0020
     13 C          26.6771   36.5113   33.6590 C.3     1  UNL1        0.0020
     14 C          27.6139   36.1953   32.4749 C.3     1  UNL1        0.0226
     15 S          23.1011   39.5542   27.7304 S.O2    1  UNL1        0.0634
     16 O          23.0655   40.7255   28.5341 O.2     1  UNL1       -0.1528
     17 O          23.5306   39.5723   26.3760 O.2     1  UNL1       -0.1528
     18 N          21.5662   38.9324   27.7319 N.3     1  UNL1       -0.1540
     19 C          21.2299   37.8097   26.8529 C.3     1  UNL1        0.1149
     20 C          20.5449   39.5050   28.6123 C.3     1  UNL1        0.0959
     21 C          20.1944   38.4977   29.7093 C.3     1  UNL1        0.0191
     22 C          19.3062   38.9850   31.9933 C.3     1  UNL1        0.0000
     23 C          20.5265   39.0973   31.0772 C.3     1  UNL1        0.0015
     24 S          28.5769   34.0024   29.0642 S.3     1  UNL1       -0.0724
     25 C          27.6451   32.5421   29.5889 C.3     1  UNL1        0.0944
     26 C          27.3390   31.6837   28.3886 C.ar    1  UNL1        0.0261
     27 C          27.5734   32.1671   27.1158 C.ar    1  UNL1        0.0365
     28 C          27.2912   31.3773   26.0114 C.ar    1  UNL1        0.1386
     29 C          26.7736   30.1020   26.1846 C.ar    1  UNL1        0.0400
     30 C          26.5447   29.6167   27.4572 C.ar    1  UNL1        0.0397
     31 C          26.8215   30.4088   28.5618 C.ar    1  UNL1        0.1357
     32 O          26.5908   29.9331   29.8147 O.3     1  UNL1       -0.4717
     33 C          25.6305   28.8826   29.9431 C.3     1  UNL1        0.2525
     34 O          27.5223   31.8528   24.7585 O.3     1  UNL1       -0.4714
     35 C          26.5539   32.7536   24.2177 C.3     1  UNL1        0.2525
@<TRIPOS>BOND
     1    22    23    1
     2    23    21    1
     3    21    20    1
     4    20    18    1
     5    18    19    1
     6    18    15    1
     7    15    16    2
     8    15    17    2
     9    15     1    1
    10     1     6   ar
    11     1     2   ar
    12     2     3   ar
    13     3     4   ar
    14     4     9   ar
    15     4     5   ar
    16     5     6   ar
    17     5     7   ar
    18     7     8   ar
    19     8     9   ar
    20     8    24    1
    21     9    10    1
    22    10    14    1
    23    10    11    1
    24    11    12    1
    25    12    13    1
    26    13    14    1
    27    24    25    1
    28    25    26    1
    29    26    31   ar
    30    26    27   ar
    31    27    28   ar
    32    28    29   ar
    33    28    34    1
    34    29    30   ar
    35    30    31   ar
    36    31    32    1
    37    32    33    1
    38    34    35    1
@<TRIPOS>MOLECULE
ZINC02648050
 37 41 0 0 0
SMALL
GASTEIGER

@<TRIPOS>ATOM
      1 C          11.0593   37.7484   25.3412 C.ar    1  UNL1        0.0817
      2 C          11.0422   36.4039   24.9591 C.ar    1  UNL1        0.0069
      3 C          10.6788   36.0588   23.6761 C.ar    1  UNL1        0.0002
      4 C          10.3291   37.0384   22.7593 C.ar    1  UNL1        0.0005
      5 C          10.3403   38.3696   23.1204 C.ar    1  UNL1        0.0067
      6 C          10.6994   38.7378   24.4117 C.ar    1  UNL1        0.0371
      7 C          11.4464   38.1246   26.7116 C.2     1  UNL1        0.3421
      8 O          10.6016   38.5017   27.4997 O.2     1  UNL1       -0.2449
      9 O          12.7373   38.0509   27.0915 O.3     1  UNL1       -0.4368
     10 C          13.0639   37.0955   28.1349 C.3     1  UNL1        0.2770
     11 C          13.0487   37.7883   29.4731 C.2     1  UNL1        0.2181
     12 O          12.0042   37.9193   30.0767 O.2     1  UNL1       -0.2873
     13 C          17.9813   38.7904   30.2647 C.3     1  UNL1        0.0500
     14 C          16.4798   38.7361   30.3806 C.ar    1  UNL1        0.0373
     15 C          15.6587   38.0667   29.5541 C.ar    1  UNL1        0.0168
     16 C          14.2946   38.3035   30.0452 C.ar    1  UNL1        0.0512
     17 C          14.4283   39.1127   31.1577 C.ar    1  UNL1        0.0400
     18 N          15.7378   39.3568   31.3435 N.ar    1  UNL1       -0.3332
     19 C          13.3021   39.6316   32.0141 C.3     1  UNL1        0.0501
     20 C          16.2896   40.1782   32.4237 C.3     1  UNL1        0.1145
     21 C          15.3726   41.3774   32.6720 C.3     1  UNL1        0.0271
     22 C          16.3911   39.3409   33.7003 C.3     1  UNL1        0.1646
     23 O          17.7669   39.1438   34.0325 O.3     1  UNL1       -0.3491
     24 C          18.5086   40.3563   34.1801 C.3     1  UNL1        0.1742
     25 S          10.7082   40.4368   24.8782 S.3     1  UNL1       -0.0677
     26 C          11.4839   41.1393   23.4607 C.ar    1  UNL1        0.1141
     27 C          10.8146   42.1266   22.6861 C.ar    1  UNL1        0.0439
     28 C           9.4743   42.6986   22.8930 C.ar    1  UNL1       -0.0162
     29 C           9.0684   43.6276   22.0122 C.ar    1  UNL1        0.0048
     30 S          10.4168   43.7990   20.8654 S.2     1  UNL1       -0.0726
     31 C          11.5287   42.6175   21.5780 C.ar    1  UNL1        0.1138
     32 N          12.7398   42.1803   21.2895 N.ar    1  UNL1       -0.2173
     33 C          13.3115   41.2620   22.0447 C.ar    1  UNL1        0.1998
     34 N          12.7014   40.7603   23.1033 N.ar    1  UNL1       -0.2173
     35 C           7.6889   44.1429   22.3245 C.3     1  UNL1        0.0330
     36 C           7.4394   43.7194   23.7887 C.3     1  UNL1        0.0099
     37 C           8.3569   42.4879   23.9188 C.3     1  UNL1        0.0270
@<TRIPOS>BOND
     1    13    14    1
     2    14    18   ar
     3    14    15   ar
     4    15    16   ar
     5    16    17   ar
     6    16    11    1
     7    17    18   ar
     8    17    19    1
     9    18    20    1
    10    20    21    1
    11    20    22    1
    12    22    23    1
    13    23    24    1
    14    11    12    2
    15    11    10    1
    16    10     9    1
    17     9     7    1
    18     7     8    2
    19     7     1    1
    20     1     6   ar
    21     1     2   ar
    22     2     3   ar
    23     3     4   ar
    24     4     5   ar
    25     5     6   ar
    26     6    25    1
    27    25    26    1
    28    26    34   ar
    29    26    27   ar
    30    27    31   ar
    31    27    28   ar
    32    28    37    1
    33    28    29   ar
    34    29    30   ar
    35    29    35    1
    36    30    31   ar
    37    31    32   ar
    38    32    33   ar
    39    33    34   ar
    40    35    36    1
    41    36    37    1
@<TRIPOS>MOLECULE
ZINC01993237
 37 40 0 0 0
SMALL
GASTEIGER

@<TRIPOS>ATOM
      1 N          24.4712   37.1655   28.8340 N.2     1  UNL1       -0.2452
      2 C          25.3824   38.0625   28.4775 C.ar    1  UNL1        0.0873
      3 C          25.1391   39.4524   28.6096 C.ar    1  UNL1        0.0567
      4 C          26.0987   40.3385   28.2328 C.ar    1  UNL1        0.1468
      5 O          27.2845   39.9513   27.7336 O.2     1  UNL1       -0.4534
      6 C          27.6101   38.6503   27.5694 C.ar    1  UNL1        0.1469
      7 C          26.6939   37.6512   27.9325 C.ar    1  UNL1        0.0553
      8 C          27.0161   36.3077   27.7615 C.ar    1  UNL1        0.0414
      9 C          28.2516   35.9634   27.2426 C.ar    1  UNL1        0.1388
     10 C          29.1614   36.9541   26.8893 C.ar    1  UNL1        0.0400
     11 C          28.8454   38.2871   27.0502 C.ar    1  UNL1        0.0407
     12 C          20.7259   38.3876   30.0490 C.ar    1  UNL1        0.0757
     13 C          20.9071   37.8582   28.7649 C.ar    1  UNL1        0.0080
     14 C          22.1456   37.4554   28.3616 C.ar    1  UNL1        0.0193
     15 C          23.2384   37.5716   29.2328 C.ar    1  UNL1        0.0813
     16 C          23.0562   38.1021   30.5181 C.ar    1  UNL1        0.0193
     17 C          21.8169   38.5040   30.9199 C.ar    1  UNL1        0.0080
     18 C          19.3885   38.8211   30.4838 C.2     1  UNL1        0.3412
     19 O          18.4179   38.5842   29.7914 O.2     1  UNL1       -0.2449
     20 O          19.2398   39.4811   31.6497 O.3     1  UNL1       -0.4454
     21 C          18.0978   39.1200   32.4706 C.3     1  UNL1        0.2088
     22 C          18.3693   39.5142   33.9238 C.3     1  UNL1        0.0475
     23 C          20.5465   40.1430   34.9760 C.3     1  UNL1        0.0001
     24 C          19.7490   39.0016   34.3419 C.3     1  UNL1        0.0038
     25 C          25.8278   41.7811   28.3780 C.ar    1  UNL1        0.0378
     26 C          26.8359   42.7129   28.1160 C.ar    1  UNL1        0.0063
     27 C          26.5808   44.0604   28.2523 C.ar    1  UNL1        0.0401
     28 C          25.3240   44.4956   28.6496 C.ar    1  UNL1        0.1724
     29 C          24.3138   43.5719   28.9121 C.ar    1  UNL1        0.1725
     30 C          24.5606   42.2196   28.7725 C.ar    1  UNL1        0.0431
     31 O          23.0836   44.0019   29.3008 O.3     1  UNL1       -0.4684
     32 C          21.9568   43.4438   28.6219 C.3     1  UNL1        0.2526
     33 O          25.0779   45.8251   28.7824 O.3     1  UNL1       -0.4684
     34 C          24.7284   46.5418   27.5966 C.3     1  UNL1        0.2526
     35 O          28.5769   34.6536   27.0775 O.3     1  UNL1       -0.4755
     36 C          28.0173   33.7239   28.0073 C.3     1  UNL1        0.2055
     37 C          27.1281   32.7280   27.2602 C.3     1  UNL1        0.0512
@<TRIPOS>BOND
     1    23    24    1
     2    24    22    1
     3    22    21    1
     4    21    20    1
     5    20    18    1
     6    18    19    2
     7    18    12    1
     8    12    17   ar
     9    12    13   ar
    10    13    14   ar
    11    14    15   ar
    12    15    16   ar
    13    15     1    1
    14    16    17   ar
    15     1     2    2
    16     2     7   ar
    17     2     3   ar
    18     3     4   ar
    19     4     5   ar
    20     4    25    1
    21     5     6   ar
    22     6    11   ar
    23     6     7   ar
    24     7     8   ar
    25     8     9   ar
    26     9    10   ar
    27     9    35    1
    28    10    11   ar
    29    35    36    1
    30    36    37    1
    31    25    30   ar
    32    25    26   ar
    33    26    27   ar
    34    27    28   ar
    35    28    29   ar
    36    28    33    1
    37    29    30   ar
    38    29    31    1
    39    31    32    1
    40    33    34    1
@<TRIPOS>MOLECULE
ZINC17004119
 36 39 0 0 0
SMALL
GASTEIGER

@<TRIPOS>ATOM
      1 C          20.5448   51.4626   21.8903 C.ar    1  UNL1        0.0722
      2 C          20.8450   50.3329   21.1879 C.ar    1  UNL1        0.0805
      3 N          20.7273   50.5741   19.8600 N.ar    1  UNL1       -0.3245
      4 C          20.3332   51.8779   19.6404 C.ar    1  UNL1        0.0601
      5 C          20.2004   52.4945   20.8951 C.ar    1  UNL1        0.0216
      6 C          19.8091   53.8280   20.9800 C.ar    1  UNL1        0.0016
      7 C          19.5531   54.5384   19.8273 C.ar    1  UNL1        0.0001
      8 C          19.6837   53.9309   18.5872 C.ar    1  UNL1        0.0015
      9 C          20.0702   52.6118   18.4887 C.ar    1  UNL1        0.0172
     10 C          23.0845   51.7027   23.4205 C.3     1  UNL1        0.1072
     11 C          23.9416   52.3191   24.5571 C.3     1  UNL1        0.1636
     12 O          23.3309   51.7565   25.7414 O.3     1  UNL1       -0.3399
     13 C          21.9194   51.7288   25.4718 C.3     1  UNL1        0.1554
     14 N          21.7288   51.6793   24.0131 N.am    1  UNL1       -0.2563
     15 C          20.5564   51.6189   23.3511 C.2     1  UNL1        0.2521
     16 O          19.5075   51.6937   23.9633 O.2     1  UNL1       -0.2698
     17 C          21.2613   52.9896   26.0358 C.3     1  UNL1        0.0510
     18 C          23.2628   54.0547   22.5968 C.3     1  UNL1        0.0018
     19 C          23.1166   52.5912   22.1753 C.3     1  UNL1        0.0225
     20 C          21.2951   50.4896   26.1163 C.3     1  UNL1        0.0468
     21 C          20.9146   50.8047   27.5643 C.3     1  UNL1        0.0042
     22 C          19.6410   50.0418   27.9346 C.3     1  UNL1        0.0001
     23 C          19.2261   50.4046   29.3619 C.3     1  UNL1        0.0000
     24 C          18.5195   50.4210   26.9655 C.3     1  UNL1        0.0000
     25 C          20.9773   49.5877   18.8060 C.3     1  UNL1        0.1236
     26 C          22.4091   49.7444   18.2900 C.3     1  UNL1        0.1017
     27 C          22.3931   50.1058   16.7898 C.3     1  UNL1        0.0212
     28 C          23.5961   49.3041   16.2264 C.3     1  UNL1        0.0206
     29 C          23.5442   48.0177   17.0839 C.3     1  UNL1        0.0955
     30 N          23.1313   48.4709   18.4246 N.3     1  UNL1       -0.1590
     31 S          23.4366   47.6802   19.8472 S.O2    1  UNL1        0.0421
     32 O          24.4576   46.7442   19.5299 O.2     1  UNL1       -0.1573
     33 O          22.1633   47.2385   20.2971 O.2     1  UNL1       -0.1573
     34 C          24.0843   48.9575   20.9608 C.3     1  UNL1        0.1459
     35 C          25.4199   49.4741   20.4222 C.3     1  UNL1        0.0270
     36 C          24.2926   48.3612   22.3543 C.3     1  UNL1        0.0270
@<TRIPOS>BOND
     1    18    19    1
     2    19    10    1
     3    10    14    1
     4    10    11    1
     5    11    12    1
     6    12    13    1
     7    13    14    1
     8    13    17    1
     9    13    20    1
    10    14    15   am
    11    15    16    2
    12    15     1    1
    13     1     5   ar
    14     1     2   ar
    15     2     3   ar
    16     3     4   ar
    17     3    25    1
    18     4     9   ar
    19     4     5   ar
    20     5     6   ar
    21     6     7   ar
    22     7     8   ar
    23     8     9   ar
    24    25    26    1
    25    26    30    1
    26    26    27    1
    27    27    28    1
    28    28    29    1
    29    29    30    1
    30    30    31    1
    31    31    32    2
    32    31    33    2
    33    31    34    1
    34    34    35    1
    35    34    36    1
    36    20    21    1
    37    21    22    1
    38    22    23    1
    39    22    24    1
@<TRIPOS>MOLECULE
ZINC11667503
 37 39 0 0 0
SMALL
GASTEIGER

@<TRIPOS>ATOM
      1 C          24.3500   36.8454   30.6793 C.2     1  UNL1        0.2509
      2 O          24.2082   37.6254   31.6008 O.2     1  UNL1       -0.2698
      3 N          23.5588   36.9357   29.5920 N.am    1  UNL1       -0.2606
      4 H          23.6737   36.3039   28.8457 H       1  UNL1        0.1571
      5 C          27.3388   33.8348   30.8859 C.ar    1  UNL1        0.1222
      6 C          27.4051   34.8046   29.9013 C.ar    1  UNL1        0.0201
      7 C          26.4377   35.7854   29.8286 C.ar    1  UNL1        0.0059
      8 C          25.3902   35.7980   30.7513 C.ar    1  UNL1        0.0538
      9 C          25.3294   34.8164   31.7422 C.ar    1  UNL1        0.0059
     10 C          26.3033   33.8414   31.8035 C.ar    1  UNL1        0.0201
     11 S          28.5783   32.5854   30.9711 S.O2    1  UNL1        0.0633
     12 O          29.6548   33.0247   30.1541 O.2     1  UNL1       -0.1528
     13 O          28.7450   32.2719   32.3471 O.2     1  UNL1       -0.1528
     14 N          27.9582   31.2304   30.2488 N.3     1  UNL1       -0.1555
     15 C          26.8856   31.3540   29.2585 C.3     1  UNL1        0.0958
     16 C          26.8705   30.0923   27.1021 C.3     1  UNL1        0.0015
     17 C          27.4802   31.2792   27.8507 C.3     1  UNL1        0.0178
     18 C          27.1682   32.5730   27.0960 C.3     1  UNL1        0.0015
     19 C          28.4821   29.9082   30.5999 C.3     1  UNL1        0.0958
     20 C          27.3234   28.9164   30.7220 C.3     1  UNL1        0.0178
     21 C          27.6245   27.6744   29.8808 C.3     1  UNL1        0.0015
     22 C          27.1514   28.5107   32.1871 C.3     1  UNL1        0.0015
     23 C          22.5815   37.9197   29.5244 C.ar    1  UNL1        0.1658
     24 N          21.4868   38.0608   30.2485 N.ar    1  UNL1       -0.2239
     25 C          20.6546   39.0715   30.0472 C.ar    1  UNL1        0.0897
     26 C          20.9345   39.9864   29.0706 C.ar    1  UNL1        0.0572
     27 S          22.4757   39.3359   28.4391 S.2     1  UNL1       -0.0508
     28 C          19.4309   39.2096   30.8737 C.ar    1  UNL1        0.0182
     29 C          19.5166   39.7079   32.1727 C.ar    1  UNL1        0.0012
     30 C          18.3741   39.8383   32.9357 C.ar    1  UNL1       -0.0042
     31 C          17.1467   39.4666   32.4170 C.ar    1  UNL1       -0.0228
     32 C          17.0564   38.9666   31.1303 C.ar    1  UNL1       -0.0042
     33 C          18.1916   38.8363   30.3566 C.ar    1  UNL1        0.0012
     34 C          15.9034   39.6066   33.2569 C.3     1  UNL1        0.0189
     35 C          14.6836   39.1806   32.4373 C.3     1  UNL1        0.0044
     36 C          16.0218   38.7161   34.4955 C.3     1  UNL1        0.0044
     37 C          15.7424   41.0649   33.6907 C.3     1  UNL1        0.0044
@<TRIPOS>BOND
     1    16    17    1
     2    17    18    1
     3    17    15    1
     4    15    14    1
     5    14    19    1
     6    14    11    1
     7    19    20    1
     8    20    21    1
     9    20    22    1
    10    11    12    2
    11    11    13    2
    12    11     5    1
    13     5    10   ar
    14     5     6   ar
    15     6     7   ar
    16     7     8   ar
    17     8     9   ar
    18     8     1    1
    19     9    10   ar
    20     1     2    2
    21     1     3   am
    22     3    23    1
    23    23    27   ar
    24    23    24   ar
    25    24    25   ar
    26    25    26   ar
    27    25    28    1
    28    26    27   ar
    29    28    33   ar
    30    28    29   ar
    31    29    30   ar
    32    30    31   ar
    33    31    32   ar
    34    31    34    1
    35    32    33   ar
    36    34    35    1
    37    34    36    1
    38    34    37    1
    39     3     4    1
@<TRIPOS>MOLECULE
ZINC08433254
 43 46 0 0 0
SMALL
GASTEIGER

@<TRIPOS>ATOM
      1 C          22.6905   52.6013   22.3830 C.3     1  UNL1        0.0710
      2 C          22.1210   53.0270   21.0598 C.3     1  UNL1        0.1432
      3 C          22.8519   53.7269   20.1746 C.2     1  UNL1        0.0477
      4 N          24.1431   54.0808   20.4564 N.2     1  UNL1       -0.2578
      5 C          24.5994   54.0573   21.7461 C.2     1  UNL1        0.0612
      6 C          23.9413   53.3720   22.6970 C.2     1  UNL1        0.0716
      7 C          25.8548   54.8095   22.1052 C.3     1  UNL1        0.0520
      8 C          22.2416   54.1263   18.8558 C.3     1  UNL1        0.0478
      9 C          22.6067   50.1594   23.2697 C.ar    1  UNL1        0.0992
     10 C          23.0134   51.1301   22.3330 C.ar    1  UNL1        0.0212
     11 C          23.7394   50.5078   21.3788 C.ar    1  UNL1        0.0979
     12 N          23.8027   49.1886   21.6975 N.ar    1  UNL1       -0.2285
     13 N          23.0832   48.9944   22.8837 N.ar    1  UNL1       -0.1654
     14 C          20.2493   50.8712   26.7399 C.ar    1  UNL1        0.1658
     15 C          19.6511   50.8493   25.4881 C.ar    1  UNL1        0.0393
     16 C          20.4137   50.6238   24.3610 C.ar    1  UNL1        0.0048
     17 C          21.7854   50.4072   24.4802 C.ar    1  UNL1        0.0215
     18 C          22.3851   50.4295   25.7381 C.ar    1  UNL1        0.0343
     19 C          21.6178   50.6610   26.8627 C.ar    1  UNL1        0.1739
     20 F          22.1974   50.6833   28.0829 F       1  UNL1       -0.2010
     21 O          19.4957   51.0992   27.8481 O.3     1  UNL1       -0.4732
     22 C          19.5667   49.3100   29.4710 C.3     1  UNL1        0.0512
     23 C          18.7555   49.9929   28.3682 C.3     1  UNL1        0.2056
     24 C          24.4665   48.1955   20.9653 C.ar    1  UNL1        0.0828
     25 C          25.5970   47.5831   21.4896 C.ar    1  UNL1        0.0191
     26 C          26.2467   46.6014   20.7672 C.ar    1  UNL1        0.0015
     27 C          25.7782   46.2354   19.5186 C.ar    1  UNL1        0.0001
     28 C          24.6554   46.8468   18.9918 C.ar    1  UNL1        0.0015
     29 C          23.9986   47.8257   19.7113 C.ar    1  UNL1        0.0191
     30 C          24.4372   53.3763   24.0214 C.2     1  UNL1        0.3384
     31 O          23.6666   53.4633   24.9592 O.2     1  UNL1       -0.2452
     32 O          25.7648   53.2841   24.2451 O.3     1  UNL1       -0.4529
     33 C          26.2096   52.2099   25.0759 C.3     1  UNL1        0.1366
     34 C          25.9622   50.8784   24.3637 C.3     1  UNL1        0.0437
     35 C          27.7053   52.3678   25.3564 C.3     1  UNL1        0.0437
     36 C          25.4376   52.2332   26.3965 C.3     1  UNL1        0.0437
     37 C          20.7870   52.6850   20.7385 C.2     1  UNL1        0.3222
     38 O          19.9271   52.7146   21.5990 O.2     1  UNL1       -0.2497
     39 O          20.4677   52.3257   19.4775 O.3     1  UNL1       -0.4555
     40 C          20.3511   50.9265   19.2115 C.3     1  UNL1        0.1363
     41 C          21.6221   50.4315   18.5183 C.3     1  UNL1        0.0437
     42 C          20.1612   50.1710   20.5284 C.3     1  UNL1        0.0437
     43 C          19.1452   50.6787   18.3029 C.3     1  UNL1        0.0437
@<TRIPOS>BOND
     1    22    23    1
     2    23    21    1
     3    21    14    1
     4    14    19   ar
     5    14    15   ar
     6    15    16   ar
     7    16    17   ar
     8    17    18   ar
     9    17     9    1
    10    18    19   ar
    11    19    20    1
    12     9    13   ar
    13     9    10   ar
    14    10    11   ar
    15    10     1    1
    16    11    12   ar
    17    12    13   ar
    18    12    24    1
    19    24    29   ar
    20    24    25   ar
    21    25    26   ar
    22    26    27   ar
    23    27    28   ar
    24    28    29   ar
    25     1     6    1
    26     1     2    1
    27     2    37    1
    28     2     3    1
    29     3     8    1
    30     3     4    2
    31     4     5    1
    32     5     7    1
    33     5     6    2
    34     6    30    1
    35    30    31    2
    36    30    32    1
    37    32    33    1
    38    33    34    1
    39    33    35    1
    40    33    36    1
    41    37    38    2
    42    37    39    1
    43    39    40    1
    44    40    41    1
    45    40    42    1
    46    40    43    1
@<TRIPOS>MOLECULE
ZINC28296577
 35 38 0 0 0
SMALL
GASTEIGER

@<TRIPOS>ATOM
      1 C          24.3336   37.9305   30.4125 C.3     1  UNL1        0.0575
      2 C          23.3044   38.4719   29.4183 C.3     1  UNL1        0.2449
      3 C          23.9737   38.7310   28.0932 C.2     1  UNL1        0.2699
      4 O          24.8197   37.9657   27.6812 O.2     1  UNL1       -0.2706
      5 N          23.6325   39.8132   27.3662 N.am    1  UNL1       -0.2509
      6 C          24.1495   39.9811   26.0747 C.ar    1  UNL1        0.0545
      7 C          25.3809   40.5966   25.8942 C.ar    1  UNL1        0.0180
      8 C          25.8923   40.7569   24.6216 C.ar    1  UNL1        0.0382
      9 C          25.1707   40.3136   23.5228 C.ar    1  UNL1        0.1388
     10 C          23.9379   39.7033   23.7022 C.ar    1  UNL1        0.0382
     11 C          23.4281   39.5372   24.9746 C.ar    1  UNL1        0.0180
     12 O          25.6722   40.4769   22.2696 O.3     1  UNL1       -0.4714
     13 C          25.0207   41.4317   21.4294 C.3     1  UNL1        0.2525
     14 C          22.7209   40.8142   27.9260 C.3     1  UNL1        0.1312
     15 C          23.5143   41.9986   28.4146 C.ar    1  UNL1        0.0276
     16 C          23.1196   43.2865   28.5664 C.ar    1  UNL1        0.0044
     17 C          24.0289   44.2151   29.0370 C.ar    1  UNL1        0.0072
     18 C          25.2883   43.8106   29.3329 C.ar    1  UNL1        0.0352
     19 S          25.2156   42.0681   28.9512 S.2     1  UNL1       -0.0891
     20 O          22.2595   37.5126   29.2446 O.3     1  UNL1       -0.4397
     21 C          20.9972   37.9350   29.4658 C.2     1  UNL1        0.3418
     22 O          20.1137   37.6492   28.6800 O.2     1  UNL1       -0.2449
     23 C          20.7006   38.7116   30.6141 C.2     1  UNL1        0.0820
     24 C          19.5004   38.5874   31.2222 C.2     1  UNL1        0.0097
     25 C          19.1930   39.3922   32.4120 C.ar    1  UNL1        0.0363
     26 C          20.2204   39.7994   33.2706 C.ar    1  UNL1        0.0326
     27 C          19.9228   40.5532   34.3867 C.ar    1  UNL1        0.1401
     28 C          18.6100   40.9074   34.6615 C.ar    1  UNL1        0.0308
     29 C          17.5860   40.5111   33.8215 C.ar    1  UNL1        0.0437
     30 C          17.8665   39.7568   32.6946 C.ar    1  UNL1        0.1399
     31 O          16.8715   39.3703   31.8556 O.3     1  UNL1       -0.4482
     32 C          15.5348   39.4442   32.3601 C.3     1  UNL1        0.3612
     33 O          15.3508   40.7222   32.9808 O.3     1  UNL1       -0.3108
     34 C          16.1654   40.9023   34.1431 C.3     1  UNL1        0.1756
     35 F          20.9137   40.9477   35.2159 F       1  UNL1       -0.2042
@<TRIPOS>BOND
     1     1     2    1
     2     2     3    1
     3     2    20    1
     4     3     4    2
     5     3     5   am
     6     5    14    1
     7     5     6    1
     8    14    15    1
     9    15    19   ar
    10    15    16   ar
    11    16    17   ar
    12    17    18   ar
    13    18    19   ar
    14     6    11   ar
    15     6     7   ar
    16     7     8   ar
    17     8     9   ar
    18     9    10   ar
    19     9    12    1
    20    10    11   ar
    21    12    13    1
    22    20    21    1
    23    21    22    2
    24    21    23    1
    25    23    24    2
    26    24    25    1
    27    25    30   ar
    28    25    26   ar
    29    26    27   ar
    30    27    28   ar
    31    27    35    1
    32    28    29   ar
    33    29    34    1
    34    29    30   ar
    35    30    31    1
    36    31    32    1
    37    32    33    1
    38    33    34    1
@<TRIPOS>MOLECULE
ZINC16678466
 39 43 0 0 0
SMALL
GASTEIGER

@<TRIPOS>ATOM
      1 C          23.3027   37.6626   29.7135 C.ar    1  UNL1        0.1654
      2 N          24.0624   37.2608   30.7066 N.ar    1  UNL1       -0.2264
      3 C          25.3592   36.9455   30.5323 C.ar    1  UNL1        0.0859
      4 C          26.1545   36.5185   31.6016 C.ar    1  UNL1        0.0193
      5 C          27.4667   36.2049   31.3904 C.ar    1  UNL1        0.0015
      6 C          28.0302   36.3038   30.1246 C.ar    1  UNL1        0.0002
      7 C          27.2737   36.7218   29.0513 C.ar    1  UNL1        0.0046
      8 C          25.9327   37.0466   29.2425 C.ar    1  UNL1        0.0537
      9 C          25.0757   37.4965   28.1394 C.ar    1  UNL1        0.1700
     10 N          23.7700   37.7912   28.4286 N.ar    1  UNL1       -0.1918
     11 N          23.1824   38.1896   27.2207 N.ar    1  UNL1       -0.1225
     12 C          24.1212   38.1205   26.2937 C.ar    1  UNL1        0.2703
     13 N          25.2616   37.6965   26.8531 N.ar    1  UNL1       -0.1896
     14 C          21.5825   38.7521   31.0511 C.2     1  UNL1        0.0031
     15 C          21.9023   37.9866   29.9873 C.2     1  UNL1        0.0388
     16 C          17.5109   39.4003   32.0509 C.ar    1  UNL1        0.0478
     17 C          17.8392   38.7505   30.8647 C.ar    1  UNL1        0.0145
     18 C          19.1589   38.5382   30.5365 C.ar    1  UNL1        0.0013
     19 C          20.1713   38.9768   31.3976 C.ar    1  UNL1        0.0002
     20 C          19.8366   39.6246   32.5923 C.ar    1  UNL1        0.0013
     21 C          18.5145   39.8376   32.9103 C.ar    1  UNL1        0.0145
     22 N          16.1741   39.6131   32.3793 N.pl3   1  UNL1       -0.3075
     23 C          15.6936   41.3726   34.0086 C.3     1  UNL1        0.0232
     24 C          15.7926   39.8644   33.7713 C.3     1  UNL1        0.0908
     25 C          15.1494   39.5858   31.3325 C.3     1  UNL1        0.0908
     26 C          13.8634   38.9756   31.8935 C.3     1  UNL1        0.0232
     27 N          23.9532   38.4277   24.9713 N.2     1  UNL1       -0.2073
     28 C          24.3896   39.5655   24.5055 C.2     1  UNL1        0.1021
     29 C          24.8800   40.5982   25.4293 C.ar    1  UNL1        0.0193
     30 C          26.2489   40.8825   25.5014 C.ar    1  UNL1        0.0028
     31 C          26.7034   41.8531   26.3642 C.ar    1  UNL1        0.0146
     32 C          25.8053   42.5449   27.1723 C.ar    1  UNL1        0.0478
     33 C          24.4437   42.2618   27.1072 C.ar    1  UNL1        0.0146
     34 C          23.9803   41.2961   26.2436 C.ar    1  UNL1        0.0028
     35 N          26.2698   43.5217   28.0479 N.pl3   1  UNL1       -0.3075
     36 C          25.7198   43.6123   29.4027 C.3     1  UNL1        0.0908
     37 C          24.9632   44.9329   29.5587 C.3     1  UNL1        0.0232
     38 C          27.3088   44.4592   27.6150 C.3     1  UNL1        0.0908
     39 C          26.7620   45.3441   26.4931 C.3     1  UNL1        0.0232
@<TRIPOS>BOND
     1    23    24    1
     2    24    22    1
     3    22    25    1
     4    22    16    1
     5    25    26    1
     6    16    21   ar
     7    16    17   ar
     8    17    18   ar
     9    18    19   ar
    10    19    20   ar
    11    19    14    1
    12    20    21   ar
    13    14    15    2
    14    15     1    1
    15     1    10   ar
    16     1     2   ar
    17     2     3   ar
    18     3     8   ar
    19     3     4   ar
    20     4     5   ar
    21     5     6   ar
    22     6     7   ar
    23     7     8   ar
    24     8     9   ar
    25     9    13   ar
    26     9    10   ar
    27    10    11   ar
    28    11    12   ar
    29    12    13   ar
    30    12    27    1
    31    27    28    2
    32    28    29    1
    33    29    34   ar
    34    29    30   ar
    35    30    31   ar
    36    31    32   ar
    37    32    33   ar
    38    32    35    1
    39    33    34   ar
    40    35    36    1
    41    35    38    1
    42    36    37    1
    43    38    39    1
@<TRIPOS>MOLECULE
ZINC14150872
 38 41 0 0 0
SMALL
GASTEIGER

@<TRIPOS>ATOM
      1 C          21.6671   39.4732   29.6582 C.2     1  UNL1        0.0524
      2 C          21.9510   38.5737   28.6416 C.2     1  UNL1        0.1249
      3 C          18.5340   39.0397   31.2887 C.ar    1  UNL1        0.1453
      4 C          19.3777   38.7238   32.3329 C.ar    1  UNL1        0.0406
      5 C          20.6820   38.8459   31.8548 C.ar    1  UNL1        0.0406
      6 C          20.5873   39.2347   30.5266 C.ar    1  UNL1        0.1462
      7 O          19.2793   39.3391   30.2106 O.2     1  UNL1       -0.4535
      8 C          14.2930   39.0465   31.4476 C.ar    1  UNL1        0.0756
      9 C          14.9468   38.7682   30.2436 C.ar    1  UNL1        0.0065
     10 C          16.3167   38.7721   30.1904 C.ar    1  UNL1        0.0032
     11 C          17.0603   39.0426   31.3438 C.ar    1  UNL1        0.0346
     12 C          16.4060   39.3153   32.5496 C.ar    1  UNL1        0.0032
     13 C          15.0360   39.3174   32.6006 C.ar    1  UNL1        0.0065
     14 C          12.8179   39.0483   31.5030 C.2     1  UNL1        0.3412
     15 O          12.2220   40.0680   31.7881 O.2     1  UNL1       -0.2449
     16 O          12.1322   37.9206   31.2320 O.3     1  UNL1       -0.4454
     17 C          11.9242   37.6622   28.8195 C.3     1  UNL1        0.0513
     18 C          11.1917   37.9705   30.1269 C.3     1  UNL1        0.2089
     19 C          23.0784   38.8227   27.7350 C.2     1  UNL1        0.2596
     20 O          23.8984   37.9473   27.5290 O.2     1  UNL1       -0.2691
     21 N          23.2055   40.0207   27.1309 N.am    1  UNL1       -0.2747
     22 H          22.5422   40.7288   27.2977 H       1  UNL1        0.1557
     23 C          24.2688   40.2556   26.2758 C.ar    1  UNL1        0.0866
     24 C          25.4447   40.9500   26.5309 C.ar    1  UNL1        0.0915
     25 C          26.4127   41.0492   25.4512 C.ar    1  UNL1       -0.0122
     26 C          26.0485   40.4532   24.2955 C.ar    1  UNL1        0.0047
     27 S          24.4528   39.7612   24.6254 S.2     1  UNL1       -0.0767
     28 C          26.8334   40.3984   23.0211 C.3     1  UNL1        0.0327
     29 C          27.9575   41.4416   23.1000 C.3     1  UNL1        0.0055
     30 C          28.6697   41.2985   24.4481 C.3     1  UNL1        0.0050
     31 C          27.7492   41.7704   25.5751 C.3     1  UNL1        0.0268
     32 C          25.7008   41.5556   27.8390 C.2     1  UNL1        0.3426
     33 O          25.9703   40.8510   28.7931 O.2     1  UNL1       -0.2448
     34 O          25.6381   42.8950   27.9861 O.3     1  UNL1       -0.4454
     35 C          24.8291   43.4008   29.0806 C.3     1  UNL1        0.2089
     36 C          23.3486   43.3090   28.7053 C.3     1  UNL1        0.0513
     37 C          21.1444   37.4022   28.4763 C.1     1  UNL1        0.1051
     38 N          20.5045   36.4727   28.3451 N.1     1  UNL1       -0.1907
@<TRIPOS>BOND
     1    17    18    1
     2    18    16    1
     3    16    14    1
     4    14    15    2
     5    14     8    1
     6     8    13   ar
     7     8     9   ar
     8     9    10   ar
     9    10    11   ar
    10    11    12   ar
    11    11     3    1
    12    12    13   ar
    13     3     7   ar
    14     3     4   ar
    15     4     5   ar
    16     5     6   ar
    17     6     7   ar
    18     6     1    1
    19     1     2    2
    20     2    37    1
    21     2    19    1
    22    37    38    3
    23    19    20    2
    24    19    21   am
    25    21    23    1
    26    23    27   ar
    27    23    24   ar
    28    24    25   ar
    29    24    32    1
    30    25    31    1
    31    25    26   ar
    32    26    27   ar
    33    26    28    1
    34    28    29    1
    35    29    30    1
    36    30    31    1
    37    32    33    2
    38    32    34    1
    39    34    35    1
    40    35    36    1
    41    21    22    1
@<TRIPOS>MOLECULE
ZINC23276728
 32 35 0 0 0
SMALL
GASTEIGER

@<TRIPOS>ATOM
      1 C          12.9683   37.2162   28.1786 C.2     1  UNL1        0.3290
      2 O          13.7332   36.7054   27.3950 O.2     1  UNL1       -0.2491
      3 O          11.6500   37.2179   27.9255 O.3     1  UNL1       -0.4375
      4 C          11.1702   36.2848   26.9218 C.3     1  UNL1        0.2953
      5 C          10.8223   38.4660   24.0861 C.ar    1  UNL1        0.2034
      6 N          10.9377   38.2918   25.4222 N.ar    1  UNL1       -0.1876
      7 C          11.0255   36.9974   25.6019 C.ar    1  UNL1        0.2812
      8 O          10.9685   36.4275   24.3941 O.2     1  UNL1       -0.3331
      9 N          10.8467   37.2784   23.5384 N.ar    1  UNL1       -0.0559
     10 C          10.4477   42.1796   22.0464 C.ar    1  UNL1        0.1387
     11 C          10.9237   41.0632   21.3716 C.ar    1  UNL1        0.0370
     12 C          11.0462   39.8582   22.0301 C.ar    1  UNL1        0.0063
     13 C          10.6922   39.7613   23.3749 C.ar    1  UNL1        0.0393
     14 C          10.2099   40.8824   24.0485 C.ar    1  UNL1        0.0063
     15 C          10.0937   42.0859   23.3859 C.ar    1  UNL1        0.0370
     16 C          10.9804   43.4792   20.1289 C.3     1  UNL1        0.2525
     17 O          10.3274   43.3654   21.3949 O.3     1  UNL1       -0.4714
     18 C          13.4942   37.8513   29.4399 C.3     1  UNL1        0.1734
     19 S          15.2878   38.0567   29.3095 S.3     1  UNL1       -0.0748
     20 C          15.6054   38.9299   30.8066 C.ar    1  UNL1        0.1588
     21 N          16.7392   39.0944   31.4398 N.ar    1  UNL1       -0.1511
     22 N          16.7859   39.8132   32.6122 N.ar    1  UNL1       -0.2160
     23 C          15.6350   40.3455   33.0950 C.ar    1  UNL1        0.1497
     24 S          15.3765   41.2763   34.5084 S.2     1  UNL1       -0.0229
     25 S          14.4627   39.8130   31.8568 S.2     1  UNL1       -0.0340
     26 C          17.9960   39.9922   33.2925 C.ar    1  UNL1        0.0841
     27 C          18.3214   41.2362   33.8177 C.ar    1  UNL1        0.0215
     28 C          19.5134   41.4090   34.4931 C.ar    1  UNL1        0.0312
     29 C          20.3889   40.3458   34.6380 C.ar    1  UNL1        0.1402
     30 C          20.0691   39.1060   34.1103 C.ar    1  UNL1        0.0312
     31 C          18.8758   38.9272   33.4387 C.ar    1  UNL1        0.0215
     32 F          21.5568   40.5184   35.2947 F       1  UNL1       -0.2042
@<TRIPOS>BOND
     1    16    17    1
     2    17    10    1
     3    10    15   ar
     4    10    11   ar
     5    11    12   ar
     6    12    13   ar
     7    13    14   ar
     8    13     5    1
     9    14    15   ar
    10     5     9   ar
    11     5     6   ar
    12     6     7   ar
    13     7     8   ar
    14     7     4    1
    15     8     9   ar
    16     4     3    1
    17     3     1    1
    18     1     2    2
    19     1    18    1
    20    18    19    1
    21    19    20    1
    22    20    25   ar
    23    20    21   ar
    24    21    22   ar
    25    22    23   ar
    26    22    26    1
    27    23    24    2
    28    23    25   ar
    29    26    31   ar
    30    26    27   ar
    31    27    28   ar
    32    28    29   ar
    33    29    30   ar
    34    29    32    1
    35    30    31   ar
@<TRIPOS>MOLECULE
ZINC09591774
 34 37 0 0 0
SMALL
GASTEIGER

@<TRIPOS>ATOM
      1 N          13.3229   37.6629   29.0170 N.am    1  UNL1       -0.2381
      2 C          12.0489   37.8892   28.3244 C.3     1  UNL1        0.1116
      3 C          11.8603   36.6669   27.3987 C.3     1  UNL1        0.1283
      4 C          13.3211   36.2111   27.1767 C.3     1  UNL1        0.0985
      5 C          14.0599   36.7293   28.3909 C.2     1  UNL1        0.2314
      6 O          15.1574   36.3561   28.7478 O.2     1  UNL1       -0.2745
      7 C          15.1279   39.2055   31.7687 C.ar    1  UNL1        0.0897
      8 C          14.0497   39.6721   32.4679 C.ar    1  UNL1        0.0572
      9 S          12.7110   39.1237   31.4169 S.2     1  UNL1       -0.0506
     10 C          13.7164   38.3280   30.1718 C.ar    1  UNL1        0.1688
     11 N          14.9323   38.5447   30.6374 N.ar    1  UNL1       -0.2237
     12 C          20.4695   40.1043   33.7238 C.3     1  UNL1        0.0310
     13 C          19.0717   39.8690   33.2122 C.ar    1  UNL1       -0.0218
     14 C          18.8665   39.0382   32.1253 C.ar    1  UNL1       -0.0042
     15 C          17.5886   38.8191   31.6525 C.ar    1  UNL1        0.0012
     16 C          16.5036   39.4366   32.2724 C.ar    1  UNL1        0.0182
     17 C          16.7169   40.2768   33.3640 C.ar    1  UNL1        0.0012
     18 C          17.9986   40.4841   33.8317 C.ar    1  UNL1       -0.0042
     19 C          11.2172   37.0697   26.0967 C.2     1  UNL1        0.3189
     20 O          10.1009   36.6908   25.8316 O.2     1  UNL1       -0.2500
     21 O          11.8845   37.8493   25.2314 O.3     1  UNL1       -0.4442
     22 C          11.2478   39.0938   24.8390 C.3     1  UNL1        0.2308
     23 C          11.0395   39.1026   23.3465 C.2     1  UNL1        0.2128
     24 O          10.6095   38.1155   22.7884 O.2     1  UNL1       -0.2875
     25 C          11.3576   40.3078   22.5670 C.ar    1  UNL1        0.0385
     26 C          10.8110   40.4840   21.2909 C.ar    1  UNL1        0.0053
     27 C          11.1094   41.6179   20.5677 C.ar    1  UNL1        0.0297
     28 C          11.9583   42.5787   21.0975 C.ar    1  UNL1        0.1401
     29 C          12.5071   42.4080   22.3599 C.ar    1  UNL1        0.0297
     30 C          12.2129   41.2812   23.0957 C.ar    1  UNL1        0.0053
     31 F          12.2513   43.6858   20.3808 F       1  UNL1       -0.2042
     32 C           9.8955   39.2192   25.5435 C.3     1  UNL1        0.0693
     33 C           9.9218   40.4229   26.4875 C.3     1  UNL1        0.0991
     34 CL         10.1028   41.9372   25.5256 Cl      1  UNL1       -0.1136
@<TRIPOS>BOND
     1    12    13    1
     2    13    18   ar
     3    13    14   ar
     4    14    15   ar
     5    15    16   ar
     6    16    17   ar
     7    16     7    1
     8    17    18   ar
     9     7    11   ar
    10     7     8   ar
    11     8     9   ar
    12     9    10   ar
    13    10    11   ar
    14    10     1    1
    15     1     5   am
    16     1     2    1
    17     2     3    1
    18     3     4    1
    19     3    19    1
    20     4     5    1
    21     5     6    2
    22    19    20    2
    23    19    21    1
    24    21    22    1
    25    22    32    1
    26    22    23    1
    27    32    33    1
    28    33    34    1
    29    23    24    2
    30    23    25    1
    31    25    30   ar
    32    25    26   ar
    33    26    27   ar
    34    27    28   ar
    35    28    29   ar
    36    28    31    1
    37    29    30   ar
@<TRIPOS>MOLECULE
ZINC18050809
 35 37 0 0 0
SMALL
GASTEIGER

@<TRIPOS>ATOM
      1 C          21.9362   39.1471   28.9993 C.2     1  UNL1        0.1292
      2 C          23.2805   38.7660   28.8994 C.ar    1  UNL1        0.1056
      3 N          24.3261   39.4940   28.4037 N.ar    1  UNL1       -0.2892
      4 C          25.5500   38.9899   28.3767 C.ar    1  UNL1        0.2672
      5 O          26.4995   39.6146   27.9411 O.2     1  UNL1       -0.2664
      6 C          25.6870   37.6200   28.9096 C.ar    1  UNL1        0.0869
      7 C          26.7953   36.8426   29.0165 C.2     1  UNL1        0.0113
      8 S          24.0006   37.2623   29.3759 S.2     1  UNL1       -0.0641
      9 C          26.7227   35.5525   29.7150 C.ar    1  UNL1        0.0008
     10 C          26.9810   34.3628   29.0234 C.ar    1  UNL1        0.0023
     11 C          26.9168   33.1569   29.6863 C.ar    1  UNL1        0.0296
     12 C          26.5860   33.1185   31.0327 C.ar    1  UNL1        0.1401
     13 C          26.3233   34.2927   31.7227 C.ar    1  UNL1        0.0296
     14 C          26.3894   35.5063   31.0739 C.ar    1  UNL1        0.0023
     15 F          26.5189   31.9319   31.6750 F       1  UNL1       -0.2042
     16 C          20.9842   38.2500   29.5427 C.2     1  UNL1        0.2070
     17 O          20.8314   37.1487   29.0447 O.2     1  UNL1       -0.2858
     18 C          18.6613   39.3990   32.9095 C.ar    1  UNL1       -0.0222
     19 C          18.0341   38.9515   31.7603 C.ar    1  UNL1       -0.0042
     20 C          18.7826   38.5771   30.6635 C.ar    1  UNL1        0.0029
     21 C          20.1753   38.6503   30.7151 C.ar    1  UNL1        0.0397
     22 C          20.8020   39.0972   31.8793 C.ar    1  UNL1        0.0029
     23 C          20.0417   39.4743   32.9670 C.ar    1  UNL1       -0.0042
     24 C          17.8373   39.8067   34.1037 C.3     1  UNL1        0.0264
     25 C          15.8177   41.2298   33.7325 C.3     1  UNL1        0.0004
     26 C          16.3544   39.7971   33.7274 C.3     1  UNL1        0.0047
     27 C          21.5246   40.4438   28.5522 C.1     1  UNL1        0.1057
     28 N          21.1981   41.4724   28.1976 N.1     1  UNL1       -0.1907
     29 C          24.0893   40.8477   27.8960 C.3     1  UNL1        0.1101
     30 C          24.7450   41.8652   28.8317 C.3     1  UNL1        0.0362
     31 C          25.0727   43.1393   28.0505 C.3     1  UNL1        0.1116
     32 C          24.0055   44.1726   28.3042 C.2     1  UNL1        0.3172
     33 O          23.2473   44.0418   29.2359 O.2     1  UNL1       -0.2501
     34 O          23.8974   45.2383   27.4953 O.3     1  UNL1       -0.4444
     35 C          24.6725   46.4146   27.8476 C.3     1  UNL1        0.2556
@<TRIPOS>BOND
     1    25    26    1
     2    26    24    1
     3    24    18    1
     4    18    23   ar
     5    18    19   ar
     6    19    20   ar
     7    20    21   ar
     8    21    22   ar
     9    21    16    1
    10    22    23   ar
    11    16    17    2
    12    16     1    1
    13     1     2    2
    14     1    27    1
    15     2     8   ar
    16     2     3   ar
    17     3     4   ar
    18     3    29    1
    19     4     5    2
    20     4     6   ar
    21     6     7    2
    22     6     8   ar
    23     7     9    1
    24     9    14   ar
    25     9    10   ar
    26    10    11   ar
    27    11    12   ar
    28    12    13   ar
    29    12    15    1
    30    13    14   ar
    31    29    30    1
    32    30    31    1
    33    31    32    1
    34    32    33    2
    35    32    34    1
    36    34    35    1
    37    27    28    3
@<TRIPOS>MOLECULE
ZINC09775482
 34 36 0 0 0
SMALL
GASTEIGER

@<TRIPOS>ATOM
      1 C          26.8654   35.7348   30.9294 C.ar    1  UNL1        0.0806
      2 C          25.7401   36.3767   31.3566 C.ar    1  UNL1       -0.0048
      3 C          24.9385   37.0606   30.4398 C.ar    1  UNL1        0.0767
      4 C          25.3781   37.0284   29.0944 C.ar    1  UNL1        0.1172
      5 S          26.8645   36.0609   29.1747 S.2     1  UNL1       -0.0635
      6 N          24.7124   37.6348   28.1254 N.ar    1  UNL1       -0.2157
      7 C          23.5993   38.2981   28.3643 C.ar    1  UNL1        0.1743
      8 N          23.0848   38.4012   29.6229 N.ar    1  UNL1       -0.2753
      9 C          23.6897   37.8177   30.6756 C.ar    1  UNL1        0.2639
     10 O          23.2197   37.9117   31.7956 O.2     1  UNL1       -0.2669
     11 C          25.3628   36.3486   32.8154 C.3     1  UNL1        0.0319
     12 N          27.7012   33.6324   31.8327 N.am    1  UNL1       -0.2757
     13 C          27.8344   34.9685   31.7157 C.2     1  UNL1        0.2548
     14 O          28.7599   35.5383   32.2639 O.2     1  UNL1       -0.2694
     15 C          27.9638   32.5698   34.0198 C.3     1  UNL1        0.0233
     16 C          28.6291   32.8749   32.6762 C.3     1  UNL1        0.0938
     17 C          26.6287   32.9377   31.1164 C.3     1  UNL1        0.0938
     18 C          27.2209   32.1658   29.9355 C.3     1  UNL1        0.0233
     19 C          21.8469   39.1560   29.8335 C.3     1  UNL1        0.1156
     20 C          20.6706   38.1846   29.9488 C.3     1  UNL1        0.0510
     21 C          19.6983   38.6935   30.9817 C.ar    1  UNL1       -0.0202
     22 C          20.1663   39.3088   32.1276 C.ar    1  UNL1       -0.0042
     23 C          19.2745   39.7751   33.0753 C.ar    1  UNL1       -0.0003
     24 C          17.9146   39.6262   32.8769 C.ar    1  UNL1       -0.0000
     25 C          17.4465   39.0113   31.7307 C.ar    1  UNL1       -0.0003
     26 C          18.3384   38.5446   30.7834 C.ar    1  UNL1       -0.0042
     27 S          22.7586   39.0767   27.0258 S.3     1  UNL1       -0.0693
     28 C          23.9570   40.3680   26.6105 C.3     1  UNL1        0.1292
     29 C          23.9287   41.4390   27.6703 C.2     1  UNL1        0.1611
     30 O          22.8722   41.8328   28.1029 O.2     1  UNL1       -0.2951
     31 C          25.2189   42.0185   28.1905 C.3     1  UNL1        0.0524
     32 C          24.9214   43.2866   28.9934 C.3     1  UNL1        0.0074
     33 C          25.9110   40.9945   29.0923 C.3     1  UNL1        0.0074
     34 C          26.1342   42.3630   27.0138 C.3     1  UNL1        0.0074
@<TRIPOS>BOND
     1    15    16    1
     2    16    12    1
     3    12    17    1
     4    12    13   am
     5    17    18    1
     6    13    14    2
     7    13     1    1
     8     1     5   ar
     9     1     2   ar
    10     2     3   ar
    11     2    11    1
    12     3     9   ar
    13     3     4   ar
    14     4     5   ar
    15     4     6   ar
    16     6     7   ar
    17     7     8   ar
    18     7    27    1
    19     8     9   ar
    20     8    19    1
    21     9    10    2
    22    19    20    1
    23    20    21    1
    24    21    26   ar
    25    21    22   ar
    26    22    23   ar
    27    23    24   ar
    28    24    25   ar
    29    25    26   ar
    30    27    28    1
    31    28    29    1
    32    29    30    2
    33    29    31    1
    34    31    32    1
    35    31    33    1
    36    31    34    1
@<TRIPOS>MOLECULE
ZINC23448078
 36 39 0 0 0
SMALL
GASTEIGER

@<TRIPOS>ATOM
      1 C          20.9699   38.5134   29.2641 C.ar    1  UNL1        0.0479
      2 C          21.3592   37.4417   28.4684 C.ar    1  UNL1        0.0146
      3 C          22.3596   37.6030   27.5343 C.ar    1  UNL1        0.0028
      4 C          22.9900   38.8404   27.3955 C.ar    1  UNL1        0.0178
      5 C          22.6011   39.9128   28.1996 C.ar    1  UNL1        0.0028
      6 C          21.5962   39.7473   29.1281 C.ar    1  UNL1        0.0146
      7 C          17.1594   39.7370   32.8308 C.2     1  UNL1        0.2257
      8 O          16.0813   40.0957   32.4065 O.2     1  UNL1       -0.2749
      9 N          17.9699   38.9840   32.0610 N.am    1  UNL1       -0.2760
     10 C          17.5665   38.5861   30.7037 C.3     1  UNL1        0.1148
     11 C          18.6957   38.9437   29.7314 C.3     1  UNL1        0.1123
     12 N          19.9524   38.3487   30.2052 N.pl3   1  UNL1       -0.3041
     13 C          20.3458   38.9014   31.5081 C.3     1  UNL1        0.1123
     14 C          19.2844   38.5420   32.5532 C.3     1  UNL1        0.1148
     15 C          17.5928   40.1333   34.2186 C.3     1  UNL1        0.0853
     16 C          17.9921   41.6103   34.2260 C.3     1  UNL1        0.0096
     17 C          19.9882   40.6927   35.4158 C.3     1  UNL1        0.0000
     18 C          19.5080   41.7279   34.3966 C.3     1  UNL1        0.0005
     19 C          24.0680   39.0151   26.3977 C.ar    1  UNL1        0.0845
     20 C          23.9680   39.6538   25.1931 C.ar    1  UNL1        0.0466
     21 C          25.2503   39.5583   24.6087 C.ar    1  UNL1        0.1780
     22 N          26.0197   38.8975   25.4533 N.ar    1  UNL1       -0.1585
     23 N          25.3569   38.5743   26.5050 N.ar    1  UNL1       -0.2295
     24 C          25.8776   37.8712   27.5993 C.ar    1  UNL1        0.0830
     25 C          26.0577   38.5151   28.8166 C.ar    1  UNL1        0.0223
     26 C          26.5664   37.8204   29.8957 C.ar    1  UNL1        0.0384
     27 C          26.9076   36.4821   29.7613 C.ar    1  UNL1        0.1388
     28 C          26.7328   35.8397   28.5438 C.ar    1  UNL1        0.0384
     29 C          26.2193   36.5317   27.4655 C.ar    1  UNL1        0.0223
     30 O          27.4137   35.8003   30.8227 O.3     1  UNL1       -0.4714
     31 C          26.9008   36.1356   32.1136 C.3     1  UNL1        0.2525
     32 C          25.6552   40.0977   23.2964 C.2     1  UNL1        0.3609
     33 O          26.8334   40.2337   23.0327 O.2     1  UNL1       -0.2431
     34 O          24.7183   40.4397   22.3904 O.3     1  UNL1       -0.4444
     35 C          25.1399   40.5169   21.0031 C.3     1  UNL1        0.2089
     36 C          24.4009   39.4557   20.1856 C.3     1  UNL1        0.0513
@<TRIPOS>BOND
     1    17    18    1
     2    18    16    1
     3    16    15    1
     4    15     7    1
     5     7     8    2
     6     7     9   am
     7     9    14    1
     8     9    10    1
     9    10    11    1
    10    11    12    1
    11    12    13    1
    12    12     1    1
    13    13    14    1
    14     1     6   ar
    15     1     2   ar
    16     2     3   ar
    17     3     4   ar
    18     4     5   ar
    19     4    19    1
    20     5     6   ar
    21    19    23   ar
    22    19    20   ar
    23    20    21   ar
    24    21    22   ar
    25    21    32    1
    26    22    23   ar
    27    23    24    1
    28    24    29   ar
    29    24    25   ar
    30    25    26   ar
    31    26    27   ar
    32    27    28   ar
    33    27    30    1
    34    28    29   ar
    35    30    31    1
    36    32    33    2
    37    32    34    1
    38    34    35    1
    39    35    36    1
@<TRIPOS>MOLECULE
ZINC10413866
 35 38 0 0 0
SMALL
GASTEIGER

@<TRIPOS>ATOM
      1 C          13.5963   36.6152   27.5857 C.2     1  UNL1        0.3419
      2 O          13.7546   35.4778   27.1828 O.2     1  UNL1       -0.2449
      3 C          15.0000   38.1502   28.7781 C.2     1  UNL1        0.0263
      4 C          14.2281   37.0372   28.7781 C.2     1  UNL1        0.0834
      5 C          17.5575   38.9547   31.2456 C.ar    1  UNL1        0.1727
      6 N          16.9850   38.5577   30.1284 N.ar    1  UNL1       -0.2234
      7 C          15.6550   38.5877   30.0142 C.ar    1  UNL1        0.0900
      8 C          14.9082   39.0408   31.0871 C.ar    1  UNL1        0.0573
      9 S          16.1496   39.4151   32.2419 S.2     1  UNL1       -0.0503
     10 C          21.2922   38.6430   31.0104 C.3     1  UNL1        0.0956
     11 C          19.8340   38.6993   30.6343 C.2     1  UNL1        0.2350
     12 O          19.4929   38.4714   29.4931 O.2     1  UNL1       -0.2741
     13 N          18.9090   39.0029   31.5664 N.am    1  UNL1       -0.2169
     14 C          19.3096   39.3668   32.8583 C.ar    1  UNL1        0.0599
     15 C          19.6837   40.6766   33.1277 C.ar    1  UNL1        0.0153
     16 C          20.0737   41.0334   34.4037 C.ar    1  UNL1        0.0013
     17 C          20.1020   40.0854   35.4101 C.ar    1  UNL1        0.0001
     18 C          19.7351   38.7790   35.1437 C.ar    1  UNL1        0.0013
     19 C          19.3391   38.4172   33.8709 C.ar    1  UNL1        0.0153
     20 O          12.8174   37.4738   26.8942 O.3     1  UNL1       -0.4368
     21 C          11.4354   37.5291   27.2531 C.3     1  UNL1        0.2769
     22 C          10.5886   37.3020   26.0274 C.2     1  UNL1        0.2170
     23 O           9.9160   36.2975   25.9328 O.2     1  UNL1       -0.2874
     24 C          10.5780   38.2993   24.9453 C.ar    1  UNL1        0.0384
     25 C          10.6081   39.6644   25.2472 C.ar    1  UNL1        0.0026
     26 C          10.6027   40.5926   24.2275 C.ar    1  UNL1       -0.0042
     27 C          10.5565   40.1764   22.9083 C.ar    1  UNL1       -0.0225
     28 C          10.5216   38.8272   22.6014 C.ar    1  UNL1       -0.0042
     29 C          10.5318   37.8867   23.6097 C.ar    1  UNL1        0.0026
     30 C          10.5446   41.1977   21.8001 C.3     1  UNL1        0.0223
     31 C          11.8061   41.0411   20.9487 C.3     1  UNL1        0.0044
     32 C          11.7940   42.0779   19.8236 C.3     1  UNL1        0.0003
     33 C          11.7566   43.4838   20.4261 C.3     1  UNL1        0.0000
     34 C          10.4951   43.6403   21.2775 C.3     1  UNL1        0.0003
     35 C          10.5071   42.6036   22.4026 C.3     1  UNL1        0.0044
@<TRIPOS>BOND
     1    10    11    1
     2    11    12    2
     3    11    13   am
     4    13    14    1
     5    13     5    1
     6    14    19   ar
     7    14    15   ar
     8    15    16   ar
     9    16    17   ar
    10    17    18   ar
    11    18    19   ar
    12     5     9   ar
    13     5     6   ar
    14     6     7   ar
    15     7     8   ar
    16     7     3    1
    17     8     9   ar
    18     3     4    2
    19     4     1    1
    20     1     2    2
    21     1    20    1
    22    20    21    1
    23    21    22    1
    24    22    23    2
    25    22    24    1
    26    24    29   ar
    27    24    25   ar
    28    25    26   ar
    29    26    27   ar
    30    27    28   ar
    31    27    30    1
    32    28    29   ar
    33    30    35    1
    34    30    31    1
    35    31    32    1
    36    32    33    1
    37    33    34    1
    38    34    35    1
@<TRIPOS>MOLECULE
ZINC23444008
 38 41 0 0 0
SMALL
GASTEIGER

@<TRIPOS>ATOM
      1 C          22.7702   39.5447   28.4382 C.3     1  UNL1        0.1926
      2 C          23.0998   41.0151   28.4167 C.ar    1  UNL1        0.0104
      3 C          22.0983   41.9503   28.5994 C.ar    1  UNL1       -0.0009
      4 C          22.4008   43.2989   28.5853 C.ar    1  UNL1        0.0112
      5 C          23.7044   43.7130   28.3770 C.ar    1  UNL1        0.0577
      6 C          24.7052   42.7766   28.1885 C.ar    1  UNL1        0.0112
      7 C          24.4024   41.4283   28.2084 C.ar    1  UNL1       -0.0009
      8 CL         24.0838   45.4068   28.3516 Cl      1  UNL1       -0.0822
      9 O          21.3763   39.3651   28.1801 O.3     1  UNL1       -0.3410
     10 C          20.8145   38.2074   28.8015 C.3     1  UNL1        0.1692
     11 C          19.0326   39.3121   32.5287 C.ar    1  UNL1        0.0756
     12 C          18.2373   38.8327   31.4859 C.ar    1  UNL1        0.0062
     13 C          18.8187   38.4782   30.2862 C.ar    1  UNL1       -0.0016
     14 C          20.1866   38.5970   30.1148 C.ar    1  UNL1        0.0073
     15 C          20.9811   39.0665   31.1458 C.ar    1  UNL1       -0.0016
     16 C          20.4122   39.4294   32.3489 C.ar    1  UNL1        0.0062
     17 C          18.4170   39.6940   33.8161 C.2     1  UNL1        0.3413
     18 O          17.2115   39.8177   33.8999 O.2     1  UNL1       -0.2449
     19 C          19.3293   41.2770   35.3527 C.3     1  UNL1        0.2560
     20 O          19.1926   39.9051   34.8972 O.3     1  UNL1       -0.4413
     21 C          23.5851   38.8235   27.3626 C.3     1  UNL1        0.1399
     22 N          24.7515   38.1797   27.9816 N.4     1  UNL1        0.2806
     23 C          24.4032   37.6025   29.2868 C.3     1  UNL1        0.1274
     24 C          25.6771   37.1035   29.9771 C.3     1  UNL1        0.1549
     25 N          26.3783   36.1913   29.0609 N.am    1  UNL1       -0.2646
     26 C          26.6466   36.6523   27.6902 C.3     1  UNL1        0.1549
     27 C          25.3295   37.1668   27.0882 C.3     1  UNL1        0.1274
     28 C          26.7695   34.9675   29.4683 C.2     1  UNL1        0.2494
     29 O          26.4527   34.5637   30.5700 O.2     1  UNL1       -0.2699
     30 H          25.4605   38.8960   28.1383 H       1  UNL1        0.2069
     31 C          27.5840   34.1163   28.5749 C.ar    1  UNL1        0.0543
     32 C          28.9786   34.1797   28.6273 C.ar    1  UNL1        0.0046
     33 C          29.7409   33.3860   27.7936 C.ar    1  UNL1        0.0008
     34 C          29.1316   32.5249   26.9024 C.ar    1  UNL1        0.0103
     35 C          27.7378   32.4553   26.8357 C.ar    1  UNL1        0.0686
     36 C          26.9625   33.2497   27.6787 C.ar    1  UNL1        0.0148
     37 C          27.1073   31.5658   25.9072 C.1     1  UNL1        0.1004
     38 N          26.6071   30.8602   25.1707 N.1     1  UNL1       -0.1908
@<TRIPOS>UNITY_ATOM_ATTR
22 1
charge 1
@<TRIPOS>BOND
     1    19    20    1
     2    20    17    1
     3    17    18    2
     4    17    11    1
     5    11    16   ar
     6    11    12   ar
     7    12    13   ar
     8    13    14   ar
     9    14    15   ar
    10    14    10    1
    11    15    16   ar
    12    10     9    1
    13     9     1    1
    14     1    21    1
    15     1     2    1
    16    21    22    1
    17    22    27    1
    18    22    23    1
    19    23    24    1
    20    24    25    1
    21    25    26    1
    22    25    28   am
    23    26    27    1
    24    28    29    2
    25    28    31    1
    26    31    36   ar
    27    31    32   ar
    28    32    33   ar
    29    33    34   ar
    30    34    35   ar
    31    35    36   ar
    32    35    37    1
    33    37    38    3
    34     2     7   ar
    35     2     3   ar
    36     3     4   ar
    37     4     5   ar
    38     5     6   ar
    39     5     8    1
    40     6     7   ar
    41    22    30    1
@<TRIPOS>MOLECULE
ZINC05552898
 36 39 0 0 0
SMALL
GASTEIGER

@<TRIPOS>ATOM
      1 C          23.8171   37.9385   30.5183 C.3     1  UNL1        0.1633
      2 C          24.1404   38.3133   29.0590 C.3     1  UNL1        0.2385
      3 C          22.7620   38.6485   28.4390 C.3     1  UNL1        0.2418
      4 C          21.7877   37.9244   29.4028 C.3     1  UNL1        0.2023
      5 O          22.4003   38.1031   30.6979 O.3     1  UNL1       -0.3469
      6 C          24.2092   36.4832   30.7808 C.3     1  UNL1        0.0594
      7 C          25.4234   35.2377   32.4943 C.2     1  UNL1       -0.0048
      8 C          25.0067   36.4001   32.0568 C.2     1  UNL1       -0.0235
      9 C          20.4060   38.5804   29.3652 C.3     1  UNL1        0.2419
     10 O          20.2462   39.4390   30.5253 O.3     1  UNL1       -0.4426
     11 C          19.4985   38.9632   31.5398 C.2     1  UNL1        0.3413
     12 O          18.8088   37.9770   31.3755 O.2     1  UNL1       -0.2449
     13 C          19.5173   39.6411   32.8523 C.ar    1  UNL1        0.0756
     14 C          18.4082   40.3738   33.2792 C.ar    1  UNL1        0.0064
     15 C          18.4304   40.9995   34.5084 C.ar    1  UNL1        0.0002
     16 C          19.5528   40.9116   35.3127 C.ar    1  UNL1        0.0000
     17 C          20.6576   40.1919   34.8934 C.ar    1  UNL1        0.0002
     18 C          20.6468   39.5566   33.6691 C.ar    1  UNL1        0.0064
     19 O          22.5257   40.0811   28.4430 O.3     1  UNL1       -0.4426
     20 C          23.3747   40.8430   27.7267 C.2     1  UNL1        0.3413
     21 O          23.7464   40.4727   26.6311 O.2     1  UNL1       -0.2449
     22 C          23.8540   42.1290   28.2735 C.ar    1  UNL1        0.0756
     23 C          22.9747   43.2053   28.4073 C.ar    1  UNL1        0.0064
     24 C          23.4278   44.4021   28.9226 C.ar    1  UNL1        0.0002
     25 C          24.7527   44.5403   29.2970 C.ar    1  UNL1        0.0000
     26 C          25.6305   43.4791   29.1626 C.ar    1  UNL1        0.0002
     27 C          25.1896   42.2754   28.6532 C.ar    1  UNL1        0.0064
     28 O          24.7486   37.1900   28.3687 O.3     1  UNL1       -0.4428
     29 C          26.0747   37.2573   28.1412 C.2     1  UNL1        0.3413
     30 O          26.5122   38.0470   27.3285 O.2     1  UNL1       -0.2449
     31 C          26.9967   36.3708   28.8803 C.ar    1  UNL1        0.0756
     32 C          26.9174   34.9860   28.7200 C.ar    1  UNL1        0.0064
     33 C          27.7844   34.1643   29.4099 C.ar    1  UNL1        0.0002
     34 C          28.7244   34.7089   30.2668 C.ar    1  UNL1        0.0000
     35 C          28.8054   36.0800   30.4339 C.ar    1  UNL1        0.0002
     36 C          27.9478   36.9136   29.7466 C.ar    1  UNL1        0.0064
@<TRIPOS>BOND
     1     7     8    2
     2     8     6    1
     3     6     1    1
     4     1     5    1
     5     1     2    1
     6     2     3    1
     7     2    28    1
     8     3     4    1
     9     3    19    1
    10     4     5    1
    11     4     9    1
    12     9    10    1
    13    10    11    1
    14    11    12    2
    15    11    13    1
    16    13    18   ar
    17    13    14   ar
    18    14    15   ar
    19    15    16   ar
    20    16    17   ar
    21    17    18   ar
    22    19    20    1
    23    20    21    2
    24    20    22    1
    25    22    27   ar
    26    22    23   ar
    27    23    24   ar
    28    24    25   ar
    29    25    26   ar
    30    26    27   ar
    31    28    29    1
    32    29    30    2
    33    29    31    1
    34    31    36   ar
    35    31    32   ar
    36    32    33   ar
    37    33    34   ar
    38    34    35   ar
    39    35    36   ar
@<TRIPOS>MOLECULE
ZINC02174854
 40 44 0 0 0
SMALL
GASTEIGER

@<TRIPOS>ATOM
      1 C          24.1612   48.9595   24.0370 C.2     1  UNL1        0.0918
      2 C          24.8234   48.7019   22.8689 C.2     1  UNL1        0.0658
      3 N          24.2853   49.0310   21.7018 N.2     1  UNL1       -0.2267
      4 C          23.1200   49.6100   21.5529 C.ar    1  UNL1        0.1779
      5 N          22.2931   49.9563   22.5963 N.ar    1  UNL1       -0.2688
      6 C          21.1228   50.5458   22.3194 C.ar    1  UNL1        0.2688
      7 O          20.3583   50.8696   23.2103 O.2     1  UNL1       -0.2664
      8 C          20.7880   50.7889   20.9128 C.ar    1  UNL1        0.0884
      9 C          19.6787   51.3631   20.3752 C.2     1  UNL1        0.0125
     10 S          22.2323   50.1272   20.0968 S.2     1  UNL1       -0.0455
     11 C          22.8078   49.6273   23.9552 C.3     1  UNL1        0.1456
     12 C          26.1757   48.0381   22.9076 C.3     1  UNL1        0.0521
     13 C          22.8737   50.9071   24.7481 C.ar    1  UNL1        0.0368
     14 C          22.2631   50.9880   26.0105 C.ar    1  UNL1        0.0010
     15 C          21.5813   49.8893   26.5621 C.ar    1  UNL1       -0.0001
     16 C          21.0017   50.0029   27.7881 C.ar    1  UNL1       -0.0000
     17 C          21.0775   51.1928   28.5100 C.ar    1  UNL1       -0.0000
     18 C          21.7244   52.2787   28.0054 C.ar    1  UNL1       -0.0000
     19 C          22.3356   52.1995   26.7424 C.ar    1  UNL1       -0.0000
     20 C          23.0173   53.2993   26.1925 C.ar    1  UNL1        0.0031
     21 C          23.5981   53.1890   24.9679 C.ar    1  UNL1        0.0366
     22 C          23.5279   51.9946   24.2438 C.ar    1  UNL1        0.1368
     23 O          24.1186   51.9150   23.0227 O.3     1  UNL1       -0.4717
     24 C          25.4845   52.3257   22.9349 C.3     1  UNL1        0.2525
     25 C          19.5584   51.5055   18.9207 C.ar    1  UNL1        0.0134
     26 C          19.6528   50.4380   17.9175 C.ar    1  UNL1        0.0139
     27 C          19.4824   51.0230   16.7193 C.ar    1  UNL1        0.0372
     28 N          19.2907   52.3621   16.8968 N.ar    1  UNL1       -0.3314
     29 C          19.3271   52.6704   18.2153 C.ar    1  UNL1        0.0372
     30 C          19.1498   54.0444   18.8086 C.3     1  UNL1        0.0500
     31 C          19.5000   50.3121   15.3906 C.3     1  UNL1        0.0500
     32 C          19.0706   53.3271   15.8166 C.3     1  UNL1        0.1374
     33 C          17.5696   53.5736   15.6510 C.3     1  UNL1        0.1666
     34 O          17.0395   52.6567   14.6916 O.3     1  UNL1       -0.3490
     35 C          17.5768   52.8159   13.3770 C.3     1  UNL1        0.1742
     36 C          24.7224   48.6140   25.2768 C.2     1  UNL1        0.3404
     37 O          25.6172   49.2915   25.7503 O.2     1  UNL1       -0.2451
     38 O          24.2698   47.5305   25.9446 O.3     1  UNL1       -0.4456
     39 C          24.6351   46.1158   27.8696 C.3     1  UNL1        0.0513
     40 C          24.4042   47.5424   27.3672 C.3     1  UNL1        0.2089
@<TRIPOS>BOND
     1    39    40    1
     2    40    38    1
     3    38    36    1
     4    36    37    2
     5    36     1    1
     6     1    11    1
     7     1     2    2
     8     2     3    1
     9     2    12    1
    10     3     4    2
    11     4    10   ar
    12     4     5   ar
    13     5     6   ar
    14     5    11    1
    15     6     7    2
    16     6     8   ar
    17     8     9    2
    18     8    10   ar
    19     9    25    1
    20    25    29   ar
    21    25    26   ar
    22    26    27   ar
    23    27    28   ar
    24    27    31    1
    25    28    29   ar
    26    28    32    1
    27    29    30    1
    28    32    33    1
    29    33    34    1
    30    34    35    1
    31    11    13    1
    32    13    22   ar
    33    13    14   ar
    34    14    19   ar
    35    14    15   ar
    36    15    16   ar
    37    16    17   ar
    38    17    18   ar
    39    18    19   ar
    40    19    20   ar
    41    20    21   ar
    42    21    22   ar
    43    22    23    1
    44    23    24    1
@<TRIPOS>MOLECULE
ZINC09774039
 30 30 0 0 0
SMALL
GASTEIGER

@<TRIPOS>ATOM
      1 N          22.2620   39.1467   28.2964 N.2     1  UNL1       -0.3085
      2 C          23.6078   39.0809   28.2462 C.2     1  UNL1       -0.0531
      3 C          24.3127   39.9537   27.4390 C.2     1  UNL1       -0.1663
      4 C          24.3564   39.7832   25.9755 C.ar    1  UNL1        0.1045
      5 O          23.7696   38.8641   25.4358 O.2     1  UNL1       -0.3073
      6 N          25.0648   40.6734   25.2508 N.ar    1  UNL1       -0.3304
      7 C          25.7119   41.6933   25.8320 C.ar    1  UNL1        0.1598
      8 S          26.5795   42.7783   24.8315 S.2     1  UNL1       -0.0128
      9 N          25.7201   41.9057   27.1555 N.ar    1  UNL1       -0.3047
     10 C          25.0541   41.0955   28.0038 C.ar    1  UNL1        0.1077
     11 O          25.0649   41.3020   29.2029 O.2     1  UNL1       -0.3071
     12 H          25.1077   40.5717   24.2724 H       1  UNL1        0.1681
     13 C          26.4647   43.0475   27.6923 C.3     1  UNL1        0.1081
     14 C          25.5174   44.2357   27.8711 C.3     1  UNL1        0.0227
     15 C          25.3325   44.5205   29.3629 C.3     1  UNL1        0.0020
     16 C          26.1107   45.4685   27.1861 C.3     1  UNL1        0.0020
     17 C          21.5147   38.2216   29.1519 C.3     1  UNL1        0.0998
     18 C          21.0626   37.0155   28.3262 C.3     1  UNL1        0.0261
     19 C          20.2890   38.9349   29.7260 C.3     1  UNL1        0.0242
     20 C          20.4540   39.0952   31.2386 C.3     1  UNL1        0.0020
     21 C          19.1460   38.7184   31.9371 C.3     1  UNL1        0.0001
     22 C          19.2586   39.0270   33.4314 C.3     1  UNL1        0.0000
     23 C          20.5237   40.3277   35.1491 C.3     1  UNL1        0.0000
     24 C          20.3057   40.1212   33.6487 C.3     1  UNL1        0.0000
     25 C          24.3432   38.0556   29.0702 C.3     1  UNL1        0.2652
     26 F          24.6740   38.6062   30.3130 F       1  UNL1       -0.2218
     27 C          25.6024   37.6435   28.3522 C.2     1  UNL1        0.3531
     28 O          25.5386   36.9146   27.3906 O.2     1  UNL1       -0.2467
     29 O          26.7950   38.0862   28.7808 O.3     1  UNL1       -0.4423
     30 C          27.7146   38.5830   27.7731 C.3     1  UNL1        0.2557
@<TRIPOS>UNITY_ATOM_ATTR
3 1
charge -1
@<TRIPOS>BOND
     1    23    24    1
     2    24    22    1
     3    22    21    1
     4    21    20    1
     5    20    19    1
     6    19    17    1
     7    17    18    1
     8    17     1    1
     9     1     2    2
    10     2     3    1
    11     2    25    1
    12     3    10   ar
    13     3     4   ar
    14     4     5    2
    15     4     6   ar
    16     6     7   ar
    17     7     8    2
    18     7     9   ar
    19     9    10   ar
    20     9    13    1
    21    10    11    2
    22    13    14    1
    23    14    15    1
    24    14    16    1
    25    25    27    1
    26    25    26    1
    27    27    28    2
    28    27    29    1
    29    29    30    1
    30     6    12    1
@<TRIPOS>MOLECULE
ZINC20554771
 34 37 0 0 0
SMALL
GASTEIGER

@<TRIPOS>ATOM
      1 N          23.6984   39.2070   28.0843 N.ar    1  UNL1       -0.3053
      2 C          24.1387   37.9417   28.2265 C.ar    1  UNL1        0.1783
      3 N          23.1815   37.1931   28.7124 N.ar    1  UNL1       -0.2061
      4 C          22.0850   37.9303   28.9067 C.ar    1  UNL1        0.1846
      5 C          22.3861   39.2279   28.5125 C.ar    1  UNL1        0.1537
      6 C          21.3923   40.2253   28.6130 C.ar    1  UNL1        0.2768
      7 O          21.6321   41.3704   28.2742 O.2     1  UNL1       -0.2655
      8 N          20.1737   39.8954   29.0894 N.ar    1  UNL1       -0.3173
      9 C          19.8960   38.6357   29.4671 C.ar    1  UNL1        0.0637
     10 O          18.7866   38.3751   29.8913 O.co2   1  UNL1       -0.8475
     11 N          20.8151   37.6550   29.3874 N.ar    1  UNL1       -0.2240
     12 H          19.4775   40.5878   29.1613 H       1  UNL1        0.1693
     13 C          24.4664   40.3448   27.5725 C.3     1  UNL1        0.1076
     14 C          25.1227   41.0837   28.7405 C.3     1  UNL1        0.0245
     15 C          24.9978   42.7485   26.8815 C.3     1  UNL1        0.0001
     16 C          25.5390   42.4848   28.2881 C.3     1  UNL1        0.0019
     17 C          24.9698   43.5236   29.2566 C.3     1  UNL1        0.0001
     18 C          25.5239   37.4609   27.8782 C.3     1  UNL1        0.1710
     19 N          26.0966   36.7446   29.0257 N.4     1  UNL1        0.2885
     20 H          25.4655   35.9796   29.2643 H       1  UNL1        0.2079
     21 C          27.4020   36.1633   28.6853 C.3     1  UNL1        0.1336
     22 C          27.2772   34.6641   28.5991 C.ar    1  UNL1        0.0327
     23 C          27.1760   34.0487   27.3654 C.ar    1  UNL1        0.0014
     24 C          27.0668   32.6729   27.2861 C.ar    1  UNL1       -0.0001
     25 C          27.0478   31.9135   28.4409 C.ar    1  UNL1       -0.0000
     26 C          27.1432   32.5292   29.6749 C.ar    1  UNL1       -0.0001
     27 C          27.2581   33.9045   29.7539 C.ar    1  UNL1        0.0014
     28 C          26.2015   37.6251   30.1969 C.3     1  UNL1        0.1336
     29 C          26.1349   36.7979   31.4548 C.ar    1  UNL1        0.0327
     30 C          27.2478   36.6840   32.2668 C.ar    1  UNL1        0.0014
     31 C          27.1851   35.9296   33.4235 C.ar    1  UNL1       -0.0001
     32 C          26.0128   35.2802   33.7625 C.ar    1  UNL1       -0.0000
     33 C          24.9016   35.3896   32.9475 C.ar    1  UNL1       -0.0001
     34 C          24.9627   36.1486   31.7938 C.ar    1  UNL1        0.0014
@<TRIPOS>UNITY_ATOM_ATTR
10 1
charge -1
19 1
charge 1
@<TRIPOS>BOND
     1    15    16    1
     2    16    17    1
     3    16    14    1
     4    14    13    1
     5    13     1    1
     6     1     5   ar
     7     1     2   ar
     8     2     3   ar
     9     2    18    1
    10     3     4   ar
    11     4    11   ar
    12     4     5   ar
    13     5     6   ar
    14     6     7    2
    15     6     8   ar
    16     8     9   ar
    17     9    10    1
    18     9    11   ar
    19    18    19    1
    20    19    21    1
    21    19    28    1
    22    21    22    1
    23    22    27   ar
    24    22    23   ar
    25    23    24   ar
    26    24    25   ar
    27    25    26   ar
    28    26    27   ar
    29    28    29    1
    30    29    34   ar
    31    29    30   ar
    32    30    31   ar
    33    31    32   ar
    34    32    33   ar
    35    33    34   ar
    36     8    12    1
    37    19    20    1
@<TRIPOS>MOLECULE
ZINC15238330
 33 36 0 0 0
SMALL
GASTEIGER

@<TRIPOS>ATOM
      1 C          24.4131   38.3983   28.1154 C.3     1  UNL1        0.0103
      2 C          23.3525   38.1466   29.1687 C.2     1  UNL1        0.2148
      3 O          23.4822   38.2244   30.3715 O.2     1  UNL1       -0.2759
      4 N          22.2345   37.8188   28.4844 N.am    1  UNL1       -0.2441
      5 C          22.4434   37.8267   27.1629 C.2     1  UNL1        0.1379
      6 O          21.5870   37.5631   26.3419 O.2     1  UNL1       -0.2967
      7 N          23.7075   38.1590   26.8445 N.am    1  UNL1       -0.6089
      8 C          24.9060   39.8206   28.1884 C.ar    1  UNL1       -0.0329
      9 C          25.7799   40.1987   29.1905 C.ar    1  UNL1       -0.0054
     10 C          26.2320   41.5032   29.2574 C.ar    1  UNL1       -0.0004
     11 C          25.8110   42.4295   28.3217 C.ar    1  UNL1       -0.0000
     12 C          24.9378   42.0512   27.3190 C.ar    1  UNL1       -0.0004
     13 C          24.4846   40.7469   27.2529 C.ar    1  UNL1       -0.0054
     14 C          25.5766   37.4181   28.2779 C.3     1  UNL1        0.0189
     15 C          27.5662   36.9349   24.5288 C.ar    1  UNL1       -0.0000
     16 C          27.7739   38.0770   25.2794 C.ar    1  UNL1       -0.0003
     17 C          27.1302   38.2332   26.4927 C.ar    1  UNL1       -0.0043
     18 C          26.2784   37.2478   26.9552 C.ar    1  UNL1       -0.0230
     19 C          26.0747   36.1033   26.2071 C.ar    1  UNL1       -0.0043
     20 C          26.7150   35.9489   24.9917 C.ar    1  UNL1       -0.0003
     21 C          20.9521   37.4922   29.1128 C.3     1  UNL1        0.1310
     22 C          20.2008   38.7843   29.4400 C.3     1  UNL1        0.1601
     23 O          20.0081   39.5396   28.2423 O.3     1  UNL1       -0.3801
     24 H          19.4914   39.0165   27.6097 H       1  UNL1        0.2105
     25 C          18.8406   38.4424   30.0516 C.3     1  UNL1        0.1734
     26 O          18.9838   38.2646   31.4623 O.3     1  UNL1       -0.3464
     27 C          18.0289   38.9901   32.2394 C.3     1  UNL1        0.1687
     28 C          18.7388   39.7333   33.3416 C.ar    1  UNL1        0.0073
     29 C          19.9582   39.2788   33.8076 C.ar    1  UNL1       -0.0019
     30 C          20.6117   39.9633   34.8153 C.ar    1  UNL1       -0.0002
     31 C          20.0408   41.0964   35.3641 C.ar    1  UNL1       -0.0000
     32 C          18.8188   41.5478   34.9015 C.ar    1  UNL1       -0.0002
     33 C          18.1678   40.8664   33.8903 C.ar    1  UNL1       -0.0019
@<TRIPOS>UNITY_ATOM_ATTR
7 1
charge -1
@<TRIPOS>BOND
     1    15    20   ar
     2    15    16   ar
     3    16    17   ar
     4    17    18   ar
     5    18    19   ar
     6    18    14    1
     7    19    20   ar
     8    14     1    1
     9     1     7    1
    10     1     2    1
    11     1     8    1
    12     2     3    2
    13     2     4   am
    14     4     5   am
    15     4    21    1
    16     5     6    2
    17     5     7    1
    18    21    22    1
    19    22    25    1
    20    22    23    1
    21    25    26    1
    22    26    27    1
    23    27    28    1
    24    28    33   ar
    25    28    29   ar
    26    29    30   ar
    27    30    31   ar
    28    31    32   ar
    29    32    33   ar
    30     8    13   ar
    31     8     9   ar
    32     9    10   ar
    33    10    11   ar
    34    11    12   ar
    35    12    13   ar
    36    23    24    1
@<TRIPOS>MOLECULE
ZINC10121353
 31 32 0 0 0
SMALL
GASTEIGER

@<TRIPOS>ATOM
      1 N          24.6700   37.6094   26.8750 N.am    1  UNL1       -0.6271
      2 C          23.4496   37.7345   27.5511 C.ar    1  UNL1       -0.1233
      3 C          22.2757   37.9290   26.8355 C.ar    1  UNL1       -0.0215
      4 C          21.0722   38.0460   27.5024 C.ar    1  UNL1        0.0350
      5 C          21.0373   37.9811   28.8877 C.ar    1  UNL1        0.1384
      6 C          22.2105   37.7930   29.6037 C.ar    1  UNL1        0.0350
      7 C          23.4139   37.6697   28.9377 C.ar    1  UNL1       -0.0215
      8 O          19.8526   38.1016   29.5440 O.3     1  UNL1       -0.4755
      9 C          19.8436   38.9077   30.7238 C.3     1  UNL1        0.2054
     10 C          18.6355   38.5362   31.5861 C.3     1  UNL1        0.0473
     11 C          18.8047   39.1324   32.9850 C.3     1  UNL1        0.0037
     12 C          17.9890   40.4224   33.0916 C.3     1  UNL1        0.0001
     13 C          18.1582   41.0186   34.4905 C.3     1  UNL1        0.0000
     14 C          19.6360   41.3278   34.7378 C.3     1  UNL1        0.0000
     15 C          20.4517   40.0377   34.6312 C.3     1  UNL1        0.0000
     16 C          20.2825   39.4415   33.2323 C.3     1  UNL1        0.0001
     17 C          25.3757   38.7104   26.5489 C.2     1  UNL1       -0.0347
     18 S          26.3197   39.5048   27.7358 S.2     1  UNL1       -0.0617
     19 C          24.6432   40.2995   25.0038 C.2     1  UNL1        0.2257
     20 O          24.0438   40.8791   25.8840 O.2     1  UNL1       -0.2748
     21 N          25.3426   39.1828   25.2871 N.am    1  UNL1       -0.2990
     22 H          25.8293   38.7122   24.5724 H       1  UNL1        0.1535
     23 C          24.6062   40.8277   23.5929 C.3     1  UNL1        0.0970
     24 C          23.4182   40.2137   22.8494 C.3     1  UNL1        0.1191
     25 C          23.1135   41.0357   21.6237 C.2     1  UNL1        0.3176
     26 O          22.5416   42.0944   21.7330 O.2     1  UNL1       -0.2501
     27 O          23.4773   40.5917   20.4104 O.3     1  UNL1       -0.4457
     28 C          24.7313   41.0907   19.8746 C.3     1  UNL1        0.2403
     29 C          25.6369   39.9115   19.5137 C.3     1  UNL1        0.1895
     30 C          27.5210   39.0590   20.7257 C.3     1  UNL1        0.1743
     31 O          26.1112   39.2914   20.7107 O.3     1  UNL1       -0.3471
@<TRIPOS>UNITY_ATOM_ATTR
1 1
charge -1
@<TRIPOS>BOND
     1    30    31    1
     2    31    29    1
     3    29    28    1
     4    28    27    1
     5    27    25    1
     6    25    26    2
     7    25    24    1
     8    24    23    1
     9    23    19    1
    10    19    20    2
    11    19    21   am
    12    21    17    1
    13    17    18    2
    14    17     1    1
    15     1     2    1
    16     2     7   ar
    17     2     3   ar
    18     3     4   ar
    19     4     5   ar
    20     5     6   ar
    21     5     8    1
    22     6     7   ar
    23     8     9    1
    24     9    10    1
    25    10    11    1
    26    11    16    1
    27    11    12    1
    28    12    13    1
    29    13    14    1
    30    14    15    1
    31    15    16    1
    32    21    22    1
@<TRIPOS>MOLECULE
ZINC19316093
 31 33 0 0 0
SMALL
GASTEIGER

@<TRIPOS>ATOM
      1 S          11.6667   37.4962   27.3774 S.3     1  UNL1       -0.0675
      2 N          10.4141   39.6613   26.1601 N.ar    1  UNL1       -0.3065
      3 C          10.4662   40.3479   24.9579 C.ar    1  UNL1        0.0792
      4 C           9.7814   41.4381   24.4433 C.ar    1  UNL1        0.0188
      5 C          10.0731   41.8960   23.1748 C.ar    1  UNL1        0.0016
      6 C          11.0441   41.2695   22.4077 C.ar    1  UNL1        0.0016
      7 C          11.7374   40.1887   22.9046 C.ar    1  UNL1        0.0206
      8 C          11.4542   39.7128   24.1875 C.ar    1  UNL1        0.0992
      9 N          11.9498   38.6918   24.9346 N.ar    1  UNL1       -0.2211
     10 C          11.3403   38.6591   26.0945 C.ar    1  UNL1        0.1717
     11 C           9.5311   39.9558   27.2913 C.3     1  UNL1        0.1080
     12 C           9.8956   41.3196   27.8814 C.3     1  UNL1        0.0245
     13 C           9.4129   41.3934   29.3314 C.3     1  UNL1        0.0020
     14 C           9.1127   42.8488   29.6955 C.3     1  UNL1        0.0001
     15 C          10.3016   45.0174   30.0502 C.3     1  UNL1        0.0000
     16 C          10.2531   43.7429   29.2050 C.3     1  UNL1        0.0000
     17 C          13.4744   37.4441   27.3019 C.3     1  UNL1        0.1513
     18 C          14.0434   37.7692   28.6590 C.2     1  UNL1        0.2499
     19 O          13.7100   37.1199   29.6277 O.2     1  UNL1       -0.2726
     20 N          14.9228   38.7812   28.7962 N.am    1  UNL1       -0.2249
     21 H          15.1935   39.3082   28.0099 H       1  UNL1        0.1735
     22 N          15.4517   39.0834   30.0579 N.am    1  UNL1       -0.1719
     23 C          14.7535   39.6683   31.0512 C.2     1  UNL1        0.2267
     24 O          13.5933   40.0188   31.0229 O.2     1  UNL1       -0.2747
     25 C          15.7201   39.7948   32.2121 C.3     1  UNL1       -0.0122
     26 N          16.9700   39.2192   31.6862 N.am    1  UNL1       -0.6111
     27 C          16.7140   38.8323   30.4234 C.2     1  UNL1        0.1544
     28 O          17.5373   38.3127   29.6959 O.2     1  UNL1       -0.2952
     29 C          15.9193   41.2657   32.5832 C.3     1  UNL1       -0.0126
     30 C          15.2276   38.9979   33.4217 C.3     1  UNL1       -0.0115
     31 C          15.9132   39.5163   34.6874 C.3     1  UNL1       -0.0012
@<TRIPOS>UNITY_ATOM_ATTR
26 1
charge -1
@<TRIPOS>BOND
     1    15    16    1
     2    16    14    1
     3    14    13    1
     4    13    12    1
     5    12    11    1
     6    11     2    1
     7     2    10   ar
     8     2     3   ar
     9     3     8   ar
    10     3     4   ar
    11     4     5   ar
    12     5     6   ar
    13     6     7   ar
    14     7     8   ar
    15     8     9   ar
    16     9    10   ar
    17    10     1    1
    18     1    17    1
    19    17    18    1
    20    18    19    2
    21    18    20   am
    22    20    22    1
    23    22    27   am
    24    22    23   am
    25    23    24    2
    26    23    25    1
    27    25    26    1
    28    25    29    1
    29    25    30    1
    30    26    27    1
    31    27    28    2
    32    30    31    1
    33    20    21    1
@<TRIPOS>MOLECULE
ZINC12304814
 31 32 0 0 0
SMALL
GASTEIGER

@<TRIPOS>ATOM
      1 N          19.2828   39.5478   32.0834 N.ar    1  UNL1       -0.2957
      2 C          19.8103   38.8034   31.0630 C.ar    1  UNL1        0.1143
      3 C          18.7716   38.3387   30.3425 C.ar    1  UNL1        0.1204
      4 N          17.6409   38.7873   30.9076 N.ar    1  UNL1       -0.2095
      5 C          17.9394   39.5122   31.9508 C.ar    1  UNL1        0.2536
      6 S          16.7811   40.3067   33.0148 S.O2    1  UNL1        0.0407
      7 O          16.6248   39.4155   34.1106 O.2     1  UNL1       -0.1657
      8 O          17.3061   41.6123   33.2120 O.2     1  UNL1       -0.1657
      9 C          15.2453   40.3895   32.0529 C.3     1  UNL1        0.1594
     10 C          14.3957   39.1502   32.3411 C.3     1  UNL1        0.0259
     11 C          12.9697   39.3810   31.8368 C.3     1  UNL1        0.0018
     12 C          12.4488   38.1025   31.1773 C.3     1  UNL1        0.0001
     13 C          10.9910   38.3024   30.7579 C.3     1  UNL1        0.0000
     14 C          13.2954   37.7837   29.9434 C.3     1  UNL1        0.0000
     15 C          20.0353   40.2514   33.1250 C.3     1  UNL1        0.1086
     16 C          20.5153   39.2466   34.1743 C.3     1  UNL1        0.0246
     17 C          19.7357   41.2162   35.4991 C.3     1  UNL1        0.0001
     18 C          20.1193   39.7367   35.5685 C.3     1  UNL1        0.0020
     19 C          21.2721   38.5513   30.7974 C.3     1  UNL1        0.1515
     20 C          21.4443   40.6549   29.6118 C.3     1  UNL1        0.1055
     21 C          21.7188   41.2813   28.2427 C.3     1  UNL1        0.0611
     22 C          23.1620   40.9801   27.8291 C.3     1  UNL1        0.0120
     23 C          23.3729   39.4638   27.8086 C.3     1  UNL1        0.0552
     24 C          23.0506   38.8901   29.1903 C.3     1  UNL1        0.0558
     25 N          21.6412   39.1925   29.5185 N.4     1  UNL1        0.2763
     26 H          21.0436   38.8253   28.7780 H       1  UNL1        0.2069
     27 C          23.2407   37.3720   29.1691 C.3     1  UNL1        0.0576
     28 C          24.2530   36.9697   30.2435 C.3     1  UNL1        0.0376
     29 C          25.6635   37.3376   29.7788 C.3     1  UNL1        0.1374
     30 O          26.2964   38.1469   30.7720 O.3     1  UNL1       -0.3820
     31 H          25.7791   38.9562   30.9073 H       1  UNL1        0.2104
@<TRIPOS>UNITY_ATOM_ATTR
25 1
charge 1
@<TRIPOS>BOND
     1    17    18    1
     2    18    16    1
     3    16    15    1
     4    15     1    1
     5     1     5   ar
     6     1     2   ar
     7     2     3   ar
     8     2    19    1
     9     3     4   ar
    10     4     5   ar
    11     5     6    1
    12     6     7    2
    13     6     8    2
    14     6     9    1
    15     9    10    1
    16    10    11    1
    17    11    12    1
    18    12    13    1
    19    12    14    1
    20    19    25    1
    21    20    21    1
    22    20    25    1
    23    21    22    1
    24    22    23    1
    25    23    24    1
    26    24    27    1
    27    24    25    1
    28    27    28    1
    29    28    29    1
    30    29    30    1
    31    30    31    1
    32    25    26    1
@<TRIPOS>MOLECULE
ZINC26298693
 34 36 0 0 0
SMALL
GASTEIGER

@<TRIPOS>ATOM
      1 N          12.4795   37.6724   29.5741 N.am    1  UNL1       -0.2791
      2 C          12.5168   37.6211   28.2278 C.2     1  UNL1        0.2821
      3 O          13.5193   37.9607   27.6356 O.2     1  UNL1       -0.2684
      4 H          11.6961   37.3246   30.0584 H       1  UNL1        0.1550
      5 C          15.6786   39.3023   31.6859 C.ar    1  UNL1        0.0757
      6 C          15.9031   38.6381   30.4763 C.ar    1  UNL1        0.0077
      7 C          14.8442   38.0957   29.7840 C.ar    1  UNL1        0.0149
      8 C          13.5502   38.2179   30.2808 C.ar    1  UNL1        0.0505
      9 C          13.3224   38.8829   31.4818 C.ar    1  UNL1        0.0149
     10 C          14.3772   39.4227   32.1823 C.ar    1  UNL1        0.0077
     11 C          16.8110   39.8796   32.4333 C.2     1  UNL1        0.3412
     12 O          16.7485   41.0212   32.8447 O.2     1  UNL1       -0.2449
     13 O          17.9130   39.1393   32.6647 O.3     1  UNL1       -0.4454
     14 C          18.4818   39.2034   33.9992 C.3     1  UNL1        0.2088
     15 C          20.0018   39.3463   33.8992 C.3     1  UNL1        0.0475
     16 C          19.3296   41.2320   35.3942 C.3     1  UNL1        0.0001
     17 C          20.4915   40.3376   34.9568 C.3     1  UNL1        0.0038
     18 C          11.3128   37.1421   27.4583 C.3     1  UNL1        0.1921
     19 N          11.7395   36.6363   26.1468 N.4     1  UNL1        0.2864
     20 C          12.2946   35.2809   26.2603 C.3     1  UNL1        0.1678
     21 H          12.4772   37.2490   25.7993 H       1  UNL1        0.2076
     22 C          10.6315   36.6723   25.1828 C.3     1  UNL1        0.0792
     23 C           9.3010   36.7177   25.9368 C.3     1  UNL1        0.0661
     24 C          10.7597   37.8982   24.3158 C.ar    1  UNL1        0.0267
     25 C          11.2815   39.0650   24.8433 C.ar    1  UNL1        0.0027
     26 C          11.4054   40.1885   24.0495 C.ar    1  UNL1        0.0191
     27 C          10.9946   40.1489   22.7239 C.ar    1  UNL1        0.0846
     28 C          10.4658   38.9775   22.1987 C.ar    1  UNL1        0.0191
     29 C          10.3500   37.8555   22.9958 C.ar    1  UNL1        0.0027
     30 N          11.1138   41.2893   21.9173 N.ar    1  UNL1       -0.2079
     31 C          11.9483   42.3298   22.1075 C.ar    1  UNL1        0.2016
     32 N          11.7556   43.1862   21.1372 N.ar    1  UNL1       -0.2004
     33 C          10.8065   42.7352   20.3176 C.ar    1  UNL1        0.2214
     34 N          10.3828   41.5775   20.7532 N.ar    1  UNL1       -0.1409
@<TRIPOS>UNITY_ATOM_ATTR
19 1
charge 1
@<TRIPOS>BOND
     1    16    17    1
     2    17    15    1
     3    15    14    1
     4    14    13    1
     5    13    11    1
     6    11    12    2
     7    11     5    1
     8     5    10   ar
     9     5     6   ar
    10     6     7   ar
    11     7     8   ar
    12     8     9   ar
    13     8     1    1
    14     9    10   ar
    15     1     2   am
    16     2     3    2
    17     2    18    1
    18    18    19    1
    19    19    20    1
    20    19    22    1
    21    22    23    1
    22    22    24    1
    23    24    29   ar
    24    24    25   ar
    25    25    26   ar
    26    26    27   ar
    27    27    28   ar
    28    27    30    1
    29    28    29   ar
    30    30    34   ar
    31    30    31   ar
    32    31    32   ar
    33    32    33   ar
    34    33    34   ar
    35     1     4    1
    36    19    21    1
@<TRIPOS>MOLECULE
ZINC23576684
 31 33 0 0 0
SMALL
GASTEIGER

@<TRIPOS>ATOM
      1 C          24.0374   37.6851   28.0831 C.2     1  UNL1        0.3478
      2 O          24.4539   37.7156   26.9400 O.2     1  UNL1       -0.2443
      3 C          22.7745   38.2466   28.3917 C.ar    1  UNL1        0.1063
      4 C          22.4086   39.5844   28.4667 C.ar    1  UNL1        0.0148
      5 C          21.1079   39.8618   28.7877 C.ar    1  UNL1        0.0221
      6 C          20.2420   38.8125   29.0163 C.ar    1  UNL1        0.0812
      7 S          21.2427   37.4172   28.7761 S.2     1  UNL1       -0.0657
      8 N          18.8963   38.8617   29.3507 N.am    1  UNL1       -0.2729
      9 C          18.5229   38.8503   30.6457 C.2     1  UNL1        0.2846
     10 O          19.3661   38.7968   31.5217 O.2     1  UNL1       -0.2664
     11 H          18.2142   38.9050   28.6421 H       1  UNL1        0.1557
     12 C          17.1012   38.9023   30.9990 C.ar    1  UNL1        0.1988
     13 C          16.0536   38.7482   30.1361 C.ar    1  UNL1        0.0455
     14 C          14.8815   38.8711   30.8985 C.ar    1  UNL1        0.0440
     15 C          15.2599   39.0920   32.1768 C.ar    1  UNL1        0.1798
     16 O          16.5979   39.1051   32.2343 O.2     1  UNL1       -0.4458
     17 O          24.7793   37.1164   29.0567 O.3     1  UNL1       -0.4350
     18 C          25.9023   37.8597   29.5346 C.3     1  UNL1        0.2927
     19 N          26.2301   35.8941   31.0001 N.am    1  UNL1       -0.2987
     20 C          26.7665   36.9696   30.3902 C.2     1  UNL1        0.2673
     21 O          27.9447   37.2212   30.5299 O.2     1  UNL1       -0.2711
     22 H          25.2737   35.6898   30.8867 H       1  UNL1        0.1498
     23 C          27.0702   35.0289   31.8318 C.3     1  UNL1        0.1000
     24 C          27.1735   33.6667   31.1953 C.ar    1  UNL1        0.0250
     25 C          26.9675   33.3101   29.9039 C.ar    1  UNL1        0.0043
     26 C          27.1216   31.9851   29.5417 C.ar    1  UNL1        0.0072
     27 C          27.4739   31.0815   30.4885 C.ar    1  UNL1        0.0352
     28 S          27.5993   32.1042   31.9465 S.2     1  UNL1       -0.0892
     29 C          27.2986   35.6580   34.2390 C.3     1  UNL1        0.0021
     30 C          26.4461   34.8960   33.2224 C.3     1  UNL1        0.0227
     31 C          25.0315   35.4787   33.2043 C.3     1  UNL1        0.0021
@<TRIPOS>BOND
     1    29    30    1
     2    30    31    1
     3    30    23    1
     4    23    24    1
     5    23    19    1
     6    24    28   ar
     7    24    25   ar
     8    25    26   ar
     9    26    27   ar
    10    27    28   ar
    11    19    20   am
    12    20    21    2
    13    20    18    1
    14    18    17    1
    15    17     1    1
    16     1     2    2
    17     1     3    1
    18     3     7   ar
    19     3     4   ar
    20     4     5   ar
    21     5     6   ar
    22     6     7   ar
    23     6     8    1
    24     8     9   am
    25     9    10    2
    26     9    12    1
    27    12    16   ar
    28    12    13   ar
    29    13    14   ar
    30    14    15   ar
    31    15    16   ar
    32    19    22    1
    33     8    11    1
@<TRIPOS>MOLECULE
ZINC13600800
 33 35 0 0 0
SMALL
GASTEIGER

@<TRIPOS>ATOM
      1 C          24.5702   41.0844   27.9269 C.2     1  UNL1        0.2707
      2 O          24.9334   40.3542   28.8247 O.2     1  UNL1       -0.2707
      3 N          23.3686   40.8933   27.3471 N.am    1  UNL1       -0.2811
      4 H          23.0386   41.5333   26.6757 H       1  UNL1        0.1550
      5 C          22.5900   39.7852   27.6995 C.ar    1  UNL1        0.0464
      6 C          21.6561   39.8898   28.7194 C.ar    1  UNL1        0.0159
      7 C          20.8803   38.7859   29.0632 C.ar    1  UNL1        0.0206
      8 C          21.0542   37.5788   28.3875 C.ar    1  UNL1        0.0013
      9 C          21.9898   37.4814   27.3774 C.ar    1  UNL1       -0.0030
     10 C          22.7564   38.5784   27.0316 C.ar    1  UNL1       -0.0084
     11 C          23.7757   38.4649   25.9275 C.3     1  UNL1        0.0323
     12 C          19.8755   38.8922   30.1493 C.ar    1  UNL1        0.1031
     13 C          20.2568   39.3458   31.4161 C.ar    1  UNL1        0.0257
     14 C          19.2828   39.4279   32.3959 C.ar    1  UNL1        0.0608
     15 C          17.9829   39.0537   32.0598 C.ar    1  UNL1        0.2438
     16 N          17.7120   38.6355   30.8336 N.ar    1  UNL1       -0.1103
     17 N          18.6115   38.5628   29.9209 N.ar    1  UNL1       -0.1451
     18 O          16.9961   39.1186   32.9888 O.3     1  UNL1       -0.4593
     19 C          16.7419   40.3958   33.5770 C.3     1  UNL1        0.2073
     20 C          15.8136   41.2014   32.6660 C.3     1  UNL1        0.0512
     21 C          25.4625   42.2054   27.4598 C.3     1  UNL1        0.2897
     22 O          25.0336   42.6502   26.1713 O.3     1  UNL1       -0.4656
     23 C          25.2642   41.0473   22.9086 C.ar    1  UNL1        0.0509
     24 C          26.6059   40.6852   22.8964 C.ar    1  UNL1        0.0147
     25 C          27.4132   40.9867   23.9757 C.ar    1  UNL1        0.0044
     26 C          26.8883   41.6443   25.0723 C.ar    1  UNL1        0.0370
     27 C          25.5480   42.0033   25.0926 C.ar    1  UNL1        0.1405
     28 C          24.7342   41.7021   24.0116 C.ar    1  UNL1        0.0514
     29 N          24.4492   40.7479   21.8146 N.pl3   1  UNL1       -0.3074
     30 C          24.8568   39.2356   19.9362 C.3     1  UNL1        0.0232
     31 C          25.0287   40.6583   20.4721 C.3     1  UNL1        0.0908
     32 C          23.0147   40.5234   22.0097 C.3     1  UNL1        0.0908
     33 C          22.2237   41.5961   21.2583 C.3     1  UNL1        0.0232
@<TRIPOS>BOND
     1    30    31    1
     2    31    29    1
     3    29    32    1
     4    29    23    1
     5    32    33    1
     6    23    28   ar
     7    23    24   ar
     8    24    25   ar
     9    25    26   ar
    10    26    27   ar
    11    27    28   ar
    12    27    22    1
    13    22    21    1
    14    21     1    1
    15     1     2    2
    16     1     3   am
    17     3     5    1
    18     5    10   ar
    19     5     6   ar
    20     6     7   ar
    21     7     8   ar
    22     7    12    1
    23     8     9   ar
    24     9    10   ar
    25    10    11    1
    26    12    17   ar
    27    12    13   ar
    28    13    14   ar
    29    14    15   ar
    30    15    16   ar
    31    15    18    1
    32    16    17   ar
    33    18    19    1
    34    19    20    1
    35     3     4    1
@<TRIPOS>MOLECULE
ZINC26269054
 35 38 0 0 0
SMALL
GASTEIGER

@<TRIPOS>ATOM
      1 O          13.3334   37.7495   26.9800 O.3     1  UNL1       -0.4397
      2 C          13.9745   36.8574   27.7643 C.2     1  UNL1        0.3418
      3 O          14.1551   35.7202   27.3705 O.2     1  UNL1       -0.2449
      4 C          14.8785   38.5078   29.2500 C.2     1  UNL1        0.0094
      5 C          14.4362   37.2443   29.0433 C.2     1  UNL1        0.0820
      6 C          14.6090   39.3816   31.6130 C.ar    1  UNL1        0.1228
      7 C          15.3570   38.9087   30.5751 C.ar    1  UNL1        0.0335
      8 C          16.7512   38.8911   31.0636 C.ar    1  UNL1        0.0372
      9 C          17.9711   38.5286   30.5026 C.ar    1  UNL1        0.0031
     10 C          19.1241   38.6355   31.2508 C.ar    1  UNL1        0.0002
     11 C          19.0682   39.1023   32.5554 C.ar    1  UNL1        0.0031
     12 C          17.8643   39.4639   33.1214 C.ar    1  UNL1        0.0375
     13 C          16.6916   39.3630   32.3826 C.ar    1  UNL1        0.1448
     14 O          15.4003   39.6367   32.6623 O.2     1  UNL1       -0.4578
     15 C          13.1157   39.5828   31.5842 C.3     1  UNL1        0.0645
     16 C          12.4161   38.2483   31.8498 C.3     1  UNL1        0.0080
     17 C          10.8593   39.5265   30.3715 C.3     1  UNL1        0.0000
     18 C          11.1426   38.1634   31.0061 C.3     1  UNL1        0.0005
     19 C          11.9156   37.8453   27.1313 C.3     1  UNL1        0.2447
     20 C          11.3312   36.4494   27.3556 C.3     1  UNL1        0.0575
     21 C          11.3170   38.4464   25.8857 C.2     1  UNL1        0.2676
     22 O          10.1371   38.7246   25.8535 O.2     1  UNL1       -0.2708
     23 N          12.0917   38.6695   24.8057 N.am    1  UNL1       -0.2634
     24 H          13.0496   38.4436   24.8319 H       1  UNL1        0.1565
     25 C          11.5389   39.2182   23.6558 C.ar    1  UNL1        0.1803
     26 C          11.6933   40.5833   23.3653 C.ar    1  UNL1        0.2339
     27 C          11.1212   41.0786   22.1803 C.ar    1  UNL1        0.2735
     28 N          11.4268   42.4158   22.1432 N.ar    1  UNL1       -0.2142
     29 C          12.1322   42.7051   23.2730 C.ar    1  UNL1        0.3730
     30 N          12.2994   41.6263   23.9817 N.ar    1  UNL1       -0.2260
     31 N          10.4540   40.2462   21.3887 N.ar    1  UNL1       -0.1820
     32 C          10.3285   38.9749   21.7062 C.ar    1  UNL1        0.2034
     33 N          10.8580   38.4624   22.8020 N.ar    1  UNL1       -0.2049
     34 H          11.1815   43.0498   21.4312 H       1  UNL1        0.3132
     35 H          12.7903   41.5760   24.8336 H       1  UNL1        0.3118
@<TRIPOS>UNITY_ATOM_ATTR
28 1
charge 1
@<TRIPOS>BOND
     1    17    18    1
     2    18    16    1
     3    16    15    1
     4    15     6    1
     5     6    14   ar
     6     6     7   ar
     7     7     8   ar
     8     7     4    1
     9     8    13   ar
    10     8     9   ar
    11     9    10   ar
    12    10    11   ar
    13    11    12   ar
    14    12    13   ar
    15    13    14   ar
    16     4     5    2
    17     5     2    1
    18     2     3    2
    19     2     1    1
    20     1    19    1
    21    19    20    1
    22    19    21    1
    23    21    22    2
    24    21    23   am
    25    23    25    1
    26    25    33   ar
    27    25    26   ar
    28    26    27   ar
    29    26    30   ar
    30    27    28   ar
    31    27    31   ar
    32    28    29   ar
    33    29    30   ar
    34    31    32   ar
    35    32    33   ar
    36    23    24    1
    37    28    34    1
    38    30    35    1
@<TRIPOS>MOLECULE
ZINC23777610
 32 33 0 0 0
SMALL
GASTEIGER

@<TRIPOS>ATOM
      1 N          20.3323   39.5940   31.5082 N.am    1  UNL1       -0.2793
      2 C          19.3263   38.8581   32.0210 C.2     1  UNL1        0.2757
      3 O          18.8618   37.9375   31.3824 O.2     1  UNL1       -0.2686
      4 H          20.6596   40.3859   31.9930 H       1  UNL1        0.1550
      5 C          22.8382   38.5943   29.0099 C.ar    1  UNL1        0.1195
      6 C          22.2693   38.9507   30.2172 C.ar    1  UNL1        0.0342
      7 C          20.9116   39.2326   30.2869 C.ar    1  UNL1        0.0518
      8 C          20.1285   39.1498   29.1427 C.ar    1  UNL1        0.0144
      9 C          20.7045   38.7993   27.9376 C.ar    1  UNL1       -0.0017
     10 C          22.0571   38.5186   27.8716 C.ar    1  UNL1       -0.0032
     11 C          22.6811   38.1300   26.5560 C.3     1  UNL1        0.0324
     12 S          24.5611   38.2362   28.9204 S.O2    1  UNL1        0.0630
     13 O          25.0592   38.3023   30.2496 O.2     1  UNL1       -0.1528
     14 O          24.6928   37.0732   28.1145 O.2     1  UNL1       -0.1528
     15 N          25.2759   39.4745   28.0849 N.3     1  UNL1       -0.1555
     16 C          27.6504   39.4718   27.4993 C.3     1  UNL1        0.0206
     17 C          26.2296   39.1799   27.0126 C.3     1  UNL1        0.0958
     18 C          24.9545   40.8644   28.4180 C.3     1  UNL1        0.0958
     19 C          24.2302   41.5170   27.2388 C.3     1  UNL1        0.0206
     20 C          18.7785   39.1792   33.3876 C.3     1  UNL1        0.1336
     21 C          19.8236   38.8334   34.4501 C.3     1  UNL1        0.0711
     22 N          18.4585   40.6109   33.4631 N.4     1  UNL1        0.2862
     23 C          19.4821   41.3396   34.2242 C.3     1  UNL1        0.1678
     24 H          18.4518   40.9812   32.5127 H       1  UNL1        0.2076
     25 C          17.1239   40.8225   34.0393 C.3     1  UNL1        0.1356
     26 C          16.0759   40.3411   33.0692 C.ar    1  UNL1        0.0601
     27 C          15.8529   41.0323   31.8931 C.ar    1  UNL1        0.0037
     28 C          14.8958   40.5878   31.0005 C.ar    1  UNL1        0.0000
     29 C          14.1524   39.4579   31.2881 C.ar    1  UNL1        0.0023
     30 C          14.3696   38.7686   32.4658 C.ar    1  UNL1        0.0295
     31 C          15.3323   39.2099   33.3582 C.ar    1  UNL1        0.1416
     32 F          15.5452   38.5369   34.5102 F       1  UNL1       -0.2043
@<TRIPOS>UNITY_ATOM_ATTR
22 1
charge 1
@<TRIPOS>BOND
     1    16    17    1
     2    17    15    1
     3    15    18    1
     4    15    12    1
     5    18    19    1
     6    12    13    2
     7    12    14    2
     8    12     5    1
     9     5    10   ar
    10     5     6   ar
    11     6     7   ar
    12     7     8   ar
    13     7     1    1
    14     8     9   ar
    15     9    10   ar
    16    10    11    1
    17     1     2   am
    18     2     3    2
    19     2    20    1
    20    20    21    1
    21    20    22    1
    22    22    23    1
    23    22    25    1
    24    25    26    1
    25    26    31   ar
    26    26    27   ar
    27    27    28   ar
    28    28    29   ar
    29    29    30   ar
    30    30    31   ar
    31    31    32    1
    32     1     4    1
    33    22    24    1
@<TRIPOS>MOLECULE
ZINC10136764
 32 34 0 0 0
SMALL
GASTEIGER

@<TRIPOS>ATOM
      1 N          17.5863   38.7095   30.0333 N.am    1  UNL1       -0.2662
      2 C          16.2673   38.8037   30.2937 C.2     1  UNL1        0.2718
      3 O          15.8838   38.9600   31.4337 O.2     1  UNL1       -0.2707
      4 H          17.8977   38.5828   29.1080 H       1  UNL1        0.1564
      5 C          19.4313   38.9235   33.1016 C.ar    1  UNL1        0.0818
      6 C          18.2225   38.8497   32.4038 C.ar    1  UNL1        0.0509
      7 C          18.5102   38.7916   31.0746 C.ar    1  UNL1        0.1369
      8 N          19.8650   38.8225   30.9486 N.ar    1  UNL1       -0.2163
      9 N          20.4121   38.9110   32.2352 N.ar    1  UNL1       -0.1683
     10 C          20.5840   38.7769   29.7466 C.ar    1  UNL1        0.0842
     11 C          20.8218   37.5589   29.1239 C.ar    1  UNL1        0.0192
     12 C          21.5258   37.5178   27.9363 C.ar    1  UNL1        0.0015
     13 C          22.0036   38.6870   27.3734 C.ar    1  UNL1        0.0001
     14 C          21.7734   39.9011   27.9941 C.ar    1  UNL1        0.0015
     15 C          21.0651   39.9492   29.1789 C.ar    1  UNL1        0.0192
     16 C          19.5802   39.0033   34.5991 C.3     1  UNL1        0.0477
     17 C          19.5335   41.4729   34.9750 C.3     1  UNL1        0.0004
     18 C          20.4223   40.2276   34.9635 C.3     1  UNL1        0.0064
     19 C          15.2690   38.7150   29.1683 C.3     1  UNL1        0.2931
     20 O          14.3490   37.6207   29.4226 O.3     1  UNL1       -0.4342
     21 C          14.0607   36.8097   28.3849 C.2     1  UNL1        0.3602
     22 O          14.6943   35.7853   28.2199 O.2     1  UNL1       -0.2432
     23 C          12.9805   37.1640   27.4531 C.ar    1  UNL1        0.1651
     24 C          11.7015   36.7110   27.6638 C.ar    1  UNL1        0.0638
     25 S          10.8568   37.4333   26.2636 S.2     1  UNL1       -0.0510
     26 C          12.2702   38.2566   25.5442 C.ar    1  UNL1        0.1603
     27 N          13.2290   37.9269   26.3855 N.ar    1  UNL1       -0.2177
     28 N          12.3406   39.0324   24.3997 N.pl3   1  UNL1       -0.3093
     29 H          13.2050   39.1652   23.9474 H       1  UNL1        0.1490
     30 C          11.1289   39.6556   23.8615 C.3     1  UNL1        0.1155
     31 C          11.3183   41.1493   23.7973 C.2     1  UNL1       -0.0050
     32 C          12.3000   41.6554   23.0929 C.2     1  UNL1       -0.0032
@<TRIPOS>BOND
     1    17    18    1
     2    18    16    1
     3    16     5    1
     4     5     9   ar
     5     5     6   ar
     6     6     7   ar
     7     7     8   ar
     8     7     1    1
     9     8     9   ar
    10     8    10    1
    11    10    15   ar
    12    10    11   ar
    13    11    12   ar
    14    12    13   ar
    15    13    14   ar
    16    14    15   ar
    17     1     2   am
    18     2     3    2
    19     2    19    1
    20    19    20    1
    21    20    21    1
    22    21    22    2
    23    21    23    1
    24    23    27   ar
    25    23    24   ar
    26    24    25   ar
    27    25    26   ar
    28    26    27   ar
    29    26    28    1
    30    28    30    1
    31    30    31    1
    32    31    32    2
    33     1     4    1
    34    28    29    1
@<TRIPOS>MOLECULE
ZINC25290175
 32 34 0 0 0
SMALL
GASTEIGER

@<TRIPOS>ATOM
      1 C          19.9645   39.1409   32.0134 C.2     1  UNL1        0.2232
      2 O          19.1474   38.2614   32.1855 O.2     1  UNL1       -0.2751
      3 N          20.5999   39.2483   30.8297 N.am    1  UNL1       -0.3004
      4 H          21.2632   39.9623   30.6900 H       1  UNL1        0.1497
      5 C          20.2695   40.1137   33.1233 C.3     1  UNL1        0.0932
      6 C          19.2637   39.9220   34.2602 C.3     1  UNL1        0.0787
      7 C          18.1614   40.9416   34.1329 C.2     1  UNL1        0.1735
      8 O          18.3276   42.0691   34.5470 O.2     1  UNL1       -0.2913
      9 C          14.4711   39.8623   32.3414 C.ar    1  UNL1       -0.0222
     10 C          15.0592   41.0756   32.0289 C.ar    1  UNL1       -0.0042
     11 C          16.2585   41.4338   32.6074 C.ar    1  UNL1        0.0025
     12 C          16.8810   40.5672   33.5115 C.ar    1  UNL1        0.0347
     13 C          16.2832   39.3405   33.8177 C.ar    1  UNL1        0.0025
     14 C          15.0808   38.9993   33.2353 C.ar    1  UNL1       -0.0042
     15 C          13.1598   39.4792   31.7054 C.3     1  UNL1        0.0264
     16 C          13.2656   38.0654   31.1304 C.3     1  UNL1        0.0047
     17 C          12.3404   37.9371   29.9184 C.3     1  UNL1        0.0003
     18 C          14.5996   37.2589   29.0948 C.3     1  UNL1        0.0000
     19 C          13.1706   37.6097   28.6756 C.3     1  UNL1        0.0000
     20 C          20.3034   38.3027   29.7507 C.3     1  UNL1        0.1165
     21 C          21.2749   38.5124   28.6180 C.ar    1  UNL1        0.0017
     22 C          21.3175   37.6298   27.5465 C.ar    1  UNL1        0.0182
     23 C          22.2184   37.8501   26.5244 C.ar    1  UNL1        0.1000
     24 N          23.0360   38.8857   26.5543 N.ar    1  UNL1       -0.2292
     25 C          23.0259   39.7493   27.5578 C.ar    1  UNL1        0.1316
     26 C          22.1400   39.5913   28.6190 C.ar    1  UNL1        0.0317
     27 N          23.9044   40.8265   27.5483 N.pl3   1  UNL1       -0.2881
     28 C          23.2618   42.0351   28.0847 C.3     1  UNL1        0.1242
     29 C          24.2795   43.1785   28.1117 C.3     1  UNL1        0.1636
     30 O          24.7975   43.3802   26.7939 O.3     1  UNL1       -0.3501
     31 C          25.4308   42.2233   26.2411 C.3     1  UNL1        0.1636
     32 C          24.4248   41.0702   26.1951 C.3     1  UNL1        0.1242
@<TRIPOS>BOND
     1    18    19    1
     2    19    17    1
     3    17    16    1
     4    16    15    1
     5    15     9    1
     6     9    14   ar
     7     9    10   ar
     8    10    11   ar
     9    11    12   ar
    10    12    13   ar
    11    12     7    1
    12    13    14   ar
    13     7     8    2
    14     7     6    1
    15     6     5    1
    16     5     1    1
    17     1     2    2
    18     1     3   am
    19     3    20    1
    20    20    21    1
    21    21    26   ar
    22    21    22   ar
    23    22    23   ar
    24    23    24   ar
    25    24    25   ar
    26    25    26   ar
    27    25    27    1
    28    27    32    1
    29    27    28    1
    30    28    29    1
    31    29    30    1
    32    30    31    1
    33    31    32    1
    34     3     4    1
@<TRIPOS>MOLECULE
ZINC22873662
 30 32 0 0 0
SMALL
GASTEIGER

@<TRIPOS>ATOM
      1 C          16.4068   39.9741   32.1506 C.ar    1  UNL1        0.1064
      2 C          17.6953   39.4823   32.2147 C.ar    1  UNL1        0.0449
      3 C          18.5623   40.0820   33.1127 C.ar    1  UNL1        0.0877
      4 C          18.0756   41.1461   33.8802 C.ar    1  UNL1        0.0816
      5 S          16.4313   41.2910   33.3519 S.2     1  UNL1       -0.0658
      6 N          18.7405   41.8947   34.8249 N.pl3   1  UNL1       -0.3516
      7 H          19.6842   41.7030   35.0298 H       1  UNL1        0.1428
      8 H          18.2724   42.6217   35.2955 H       1  UNL1        0.1428
      9 C          15.3339   39.5435   31.3296 C.2     1  UNL1        0.3472
     10 O          15.3244   39.8221   30.1451 O.2     1  UNL1       -0.2443
     11 O          14.3234   38.8247   31.8618 O.3     1  UNL1       -0.4451
     12 C          12.2827   38.2059   30.7246 C.3     1  UNL1        0.0513
     13 C          12.9939   39.2619   31.5731 C.3     1  UNL1        0.2089
     14 C          19.9150   39.6317   33.2471 C.1     1  UNL1        0.1020
     15 N          20.9880   39.2745   33.3538 N.1     1  UNL1       -0.1908
     16 C          18.1391   38.3340   31.3455 C.3     1  UNL1        0.2365
     17 O          18.5430   38.8391   30.0454 O.3     1  UNL1       -0.4428
     18 C          19.7755   38.5171   29.6225 C.2     1  UNL1        0.3288
     19 O          20.0384   37.3713   29.3437 O.2     1  UNL1       -0.2491
     20 C          20.8314   39.5848   29.4952 C.3     1  UNL1        0.1733
     21 S          21.9929   39.1315   28.1833 S.3     1  UNL1       -0.0765
     22 C          22.9337   40.6177   28.0804 C.ar    1  UNL1        0.1369
     23 N          22.6033   41.8308   28.4638 N.ar    1  UNL1       -0.2320
     24 C          23.4337   42.8870   28.3226 C.ar    1  UNL1        0.0884
     25 C          23.2040   44.2329   28.6903 C.ar    1  UNL1        0.0196
     26 C          24.1610   45.1905   28.4765 C.ar    1  UNL1        0.0016
     27 C          25.3812   44.8785   27.8949 C.ar    1  UNL1        0.0006
     28 C          25.6394   43.5716   27.5225 C.ar    1  UNL1        0.0080
     29 C          24.6874   42.6062   27.7336 C.ar    1  UNL1        0.0490
     30 S          24.5830   40.8579   27.4352 S.2     1  UNL1       -0.0603
@<TRIPOS>BOND
     1    12    13    1
     2    13    11    1
     3    11     9    1
     4     9    10    2
     5     9     1    1
     6     1     5   ar
     7     1     2   ar
     8     2     3   ar
     9     2    16    1
    10     3     4   ar
    11     3    14    1
    12     4     5   ar
    13     4     6    1
    14    14    15    3
    15    16    17    1
    16    17    18    1
    17    18    19    2
    18    18    20    1
    19    20    21    1
    20    21    22    1
    21    22    30   ar
    22    22    23   ar
    23    23    24   ar
    24    24    29   ar
    25    24    25   ar
    26    25    26   ar
    27    26    27   ar
    28    27    28   ar
    29    28    29   ar
    30    29    30   ar
    31     6     7    1
    32     6     8    1
@<TRIPOS>MOLECULE
ZINC29905471
 33 36 0 0 0
SMALL
GASTEIGER

@<TRIPOS>ATOM
      1 C          18.9627   39.8059   33.0726 C.ar    1  UNL1        0.1131
      2 C          20.1778   40.0537   33.6352 C.ar    1  UNL1        0.1315
      3 O          21.1490   39.5900   32.8378 O.2     1  UNL1       -0.4401
      4 C          20.6444   39.0225   31.7284 C.ar    1  UNL1        0.2333
      5 C          19.2471   39.1138   31.8033 C.ar    1  UNL1        0.0936
      6 C          18.4764   38.5852   30.7627 C.ar    1  UNL1        0.1316
      7 N          19.1055   38.0110   29.7398 N.ar    1  UNL1       -0.2125
      8 C          20.4232   37.9424   29.7084 C.ar    1  UNL1        0.1877
      9 N          21.1838   38.4347   30.6632 N.ar    1  UNL1       -0.1925
     10 N          17.0947   38.6568   30.7960 N.pl3   1  UNL1       -0.3425
     11 C          20.3967   40.7447   34.9565 C.3     1  UNL1        0.0728
     12 H          16.6423   39.0843   31.5587 H       1  UNL1        0.1437
     13 H          16.5643   38.2802   30.0570 H       1  UNL1        0.1437
     14 C          17.6430   40.1510   33.6201 C.2     1  UNL1        0.3441
     15 O          16.9365   39.2836   34.0959 O.2     1  UNL1       -0.2448
     16 O          17.2160   41.4294   33.5946 O.3     1  UNL1       -0.4454
     17 C          15.2694   41.2087   32.1482 C.3     1  UNL1        0.0513
     18 C          15.7817   41.6440   33.5225 C.3     1  UNL1        0.2089
     19 C          21.0844   37.2815   28.5264 C.3     1  UNL1        0.2736
     20 O          20.9561   38.1217   27.3776 O.3     1  UNL1       -0.4370
     21 C          22.0990   38.5298   26.7861 C.2     1  UNL1        0.3419
     22 O          22.4988   37.9691   25.7827 O.2     1  UNL1       -0.2449
     23 C          22.8310   39.6078   27.3322 C.2     1  UNL1        0.0850
     24 C          24.1228   39.4292   27.7093 C.2     1  UNL1        0.0441
     25 C          24.8561   40.5091   28.2563 C.ar    1  UNL1        0.1451
     26 C          25.9455   40.4090   29.0976 C.ar    1  UNL1        0.0403
     27 C          26.3485   41.7212   29.3862 C.ar    1  UNL1        0.0361
     28 C          25.5103   42.5514   28.7263 C.ar    1  UNL1        0.1224
     29 O          24.6184   41.8203   28.0438 O.2     1  UNL1       -0.4578
     30 C          25.5732   44.0570   28.7488 C.3     1  UNL1        0.0575
     31 C          25.1140   44.7643   30.0254 C.3     1  UNL1        0.0079
     32 C          24.2467   44.8193   28.7662 C.3     1  UNL1        0.0075
     33 C          22.9579   43.9948   28.7594 C.3     1  UNL1        0.0005
@<TRIPOS>BOND
     1    17    18    1
     2    18    16    1
     3    16    14    1
     4    14    15    2
     5    14     1    1
     6     1     5   ar
     7     1     2   ar
     8     2     3   ar
     9     2    11    1
    10     3     4   ar
    11     4     9   ar
    12     4     5   ar
    13     5     6   ar
    14     6     7   ar
    15     6    10    1
    16     7     8   ar
    17     8     9   ar
    18     8    19    1
    19    19    20    1
    20    20    21    1
    21    21    22    2
    22    21    23    1
    23    23    24    2
    24    24    25    1
    25    25    29   ar
    26    25    26   ar
    27    26    27   ar
    28    27    28   ar
    29    28    29   ar
    30    28    30    1
    31    30    32    1
    32    30    31    1
    33    31    32    1
    34    32    33    1
    35    10    12    1
    36    10    13    1
@<TRIPOS>MOLECULE
ZINC14741038
 33 35 0 0 0
SMALL
GASTEIGER

@<TRIPOS>ATOM
      1 C          24.1981   38.0309   29.1540 C.ar    1  UNL1        0.0757
      2 C          22.8144   38.5048   29.0927 C.ar    1  UNL1        0.0505
      3 C          21.5893   37.9669   29.5024 C.ar    1  UNL1        0.0202
      4 C          20.4434   38.7181   29.2880 C.ar    1  UNL1        0.0642
      5 C          20.5528   39.9694   28.6853 C.ar    1  UNL1        0.1147
      6 N          21.7178   40.4542   28.3147 N.ar    1  UNL1       -0.2254
      7 C          22.8473   39.7793   28.4950 C.ar    1  UNL1        0.1453
      8 N          24.1576   40.0695   28.1980 N.ar    1  UNL1       -0.3040
      9 C          24.9770   39.0213   28.5918 C.ar    1  UNL1        0.1514
     10 C          24.6715   36.6258   31.0054 C.2     1  UNL1        0.2257
     11 O          24.2329   37.4759   31.7509 O.2     1  UNL1       -0.2748
     12 N          24.6401   36.8179   29.6718 N.am    1  UNL1       -0.2826
     13 H          24.9299   36.0996   29.0640 H       1  UNL1        0.1549
     14 C          25.2517   35.3547   31.5701 C.3     1  UNL1        0.0768
     15 C          26.7299   35.2551   31.1882 C.3     1  UNL1        0.0096
     16 C          26.5061   35.4923   33.7265 C.3     1  UNL1        0.0005
     17 C          25.1184   35.3666   33.0943 C.3     1  UNL1        0.0091
     18 C          26.3863   38.9754   28.4411 C.2     1  UNL1        0.3587
     19 O          26.8926   38.1524   27.7016 O.2     1  UNL1       -0.2432
     20 O          27.1658   39.8447   29.1177 O.3     1  UNL1       -0.4403
     21 C          28.2139   40.4824   28.3848 C.3     1  UNL1        0.2560
     22 N          19.1908   38.2243   29.6726 N.pl3   1  UNL1       -0.3328
     23 H          18.8477   37.3906   29.2769 H       1  UNL1        0.1468
     24 C          18.3909   38.9482   30.6637 C.3     1  UNL1        0.0691
     25 C          16.9099   38.6218   30.4606 C.3     1  UNL1        0.0212
     26 C          18.8179   38.5257   32.0709 C.3     1  UNL1        0.0195
     27 C          19.6618   39.6347   32.7021 C.3     1  UNL1        0.0017
     28 C          24.6207   41.3036   27.5587 C.3     1  UNL1        0.1371
     29 C          24.7060   42.4182   28.6035 C.3     1  UNL1        0.1378
     30 C          25.9016   43.3542   28.2949 C.3     1  UNL1        0.0341
     31 C          25.4354   44.6645   28.9885 C.3     1  UNL1        0.0346
     32 C          23.9062   44.6203   28.7816 C.3     1  UNL1        0.1422
     33 O          23.5422   43.2574   28.5334 O.3     1  UNL1       -0.3543
@<TRIPOS>BOND
     1    16    17    1
     2    17    14    1
     3    14    15    1
     4    14    10    1
     5    10    11    2
     6    10    12   am
     7    12     1    1
     8     1     9   ar
     9     1     2   ar
    10     2     7   ar
    11     2     3   ar
    12     3     4   ar
    13     4     5   ar
    14     4    22    1
    15     5     6   ar
    16     6     7   ar
    17     7     8   ar
    18     8     9   ar
    19     8    28    1
    20     9    18    1
    21    18    19    2
    22    18    20    1
    23    20    21    1
    24    28    29    1
    25    29    33    1
    26    29    30    1
    27    30    31    1
    28    31    32    1
    29    32    33    1
    30    22    24    1
    31    24    25    1
    32    24    26    1
    33    26    27    1
    34    12    13    1
    35    22    23    1
@<TRIPOS>MOLECULE
ZINC18533905
 32 34 0 0 0
SMALL
GASTEIGER

@<TRIPOS>ATOM
      1 C          21.4771   36.8602   28.3063 C.3     1  UNL1        0.1175
      2 C          21.3913   37.5897   26.9905 C.2     1  UNL1        0.3179
      3 O          20.5455   38.4361   26.8230 O.2     1  UNL1       -0.2501
      4 O          22.2545   37.2992   26.0045 O.3     1  UNL1       -0.4384
      5 C          23.1270   38.3693   25.5555 C.3     1  UNL1        0.2923
      6 N          24.8595   37.3610   27.0049 N.am    1  UNL1       -0.3029
      7 C          24.3100   38.4756   26.4831 C.2     1  UNL1        0.2671
      8 O          24.7676   39.5641   26.7599 O.2     1  UNL1       -0.2711
      9 H          24.4907   36.4772   26.7768 H       1  UNL1        0.1495
     10 C          26.0057   37.4648   27.9113 C.3     1  UNL1        0.0717
     11 C          27.2431   36.8662   27.2394 C.3     1  UNL1        0.0213
     12 C          25.7060   36.6999   29.2021 C.3     1  UNL1        0.0196
     13 C          25.4373   37.6942   30.3334 C.3     1  UNL1        0.0017
     14 C          24.6504   36.9997   31.4467 C.3     1  UNL1        0.0001
     15 C          25.5732   35.0605   32.7235 C.3     1  UNL1        0.0000
     16 C          24.9285   35.4958   31.4060 C.3     1  UNL1        0.0000
     17 C          21.9706   37.8203   29.3906 C.3     1  UNL1        0.0755
     18 C          20.7962   38.3193   30.1923 C.ar    1  UNL1        0.1203
     19 N          19.5354   38.0551   29.7631 N.ar    1  UNL1       -0.3098
     20 C          18.4585   38.4821   30.4486 C.ar    1  UNL1        0.2601
     21 O          17.3329   38.2369   30.0500 O.2     1  UNL1       -0.2671
     22 C          18.6575   39.2295   31.6555 C.ar    1  UNL1        0.0760
     23 C          17.6485   39.7889   32.5540 C.ar    1  UNL1       -0.0136
     24 C          18.0967   40.4591   33.6364 C.ar    1  UNL1        0.0049
     25 S          19.8642   40.3848   33.5232 S.2     1  UNL1       -0.0725
     26 C          19.9951   39.4519   32.0188 C.ar    1  UNL1        0.1159
     27 N          21.0094   38.9935   31.2906 N.ar    1  UNL1       -0.2259
     28 C          17.2737   41.1203   34.6994 C.3     1  UNL1        0.0327
     29 C          15.8318   41.2467   34.1870 C.3     1  UNL1        0.0055
     30 C          15.3985   39.8994   33.6019 C.3     1  UNL1        0.0050
     31 C          16.1519   39.6329   32.2981 C.3     1  UNL1        0.0268
     32 H          19.4062   37.5409   28.9336 H       1  UNL1        0.1701
@<TRIPOS>BOND
     1    15    16    1
     2    16    14    1
     3    14    13    1
     4    13    12    1
     5    12    10    1
     6    10    11    1
     7    10     6    1
     8     6     7   am
     9     7     8    2
    10     7     5    1
    11     5     4    1
    12     4     2    1
    13     2     3    2
    14     2     1    1
    15     1    17    1
    16    17    18    1
    17    18    27   ar
    18    18    19   ar
    19    19    20   ar
    20    20    21    2
    21    20    22   ar
    22    22    26   ar
    23    22    23   ar
    24    23    31    1
    25    23    24   ar
    26    24    25   ar
    27    24    28    1
    28    25    26   ar
    29    26    27   ar
    30    28    29    1
    31    29    30    1
    32    30    31    1
    33     6     9    1
    34    19    32    1
@<TRIPOS>MOLECULE
ZINC31855183
 33 35 0 0 0
SMALL
GASTEIGER

@<TRIPOS>ATOM
      1 C          20.9568   38.9585   29.9667 C.2     1  UNL1        0.1088
      2 C          21.5455   37.7963   29.5155 C.2     1  UNL1        0.0166
      3 C          22.2366   37.7790   28.2256 C.ar    1  UNL1        0.0348
      4 C          21.5173   37.5609   27.0418 C.ar    1  UNL1        0.0030
      5 C          22.1751   37.5467   25.8330 C.ar    1  UNL1        0.0002
      6 C          23.5462   37.7473   25.7789 C.ar    1  UNL1        0.0031
      7 C          24.2693   37.9630   26.9357 C.ar    1  UNL1        0.0369
      8 C          23.6267   37.9867   28.1636 C.ar    1  UNL1        0.1390
      9 O          24.3349   38.2040   29.2997 O.3     1  UNL1       -0.4706
     10 C          25.6790   37.7197   29.3288 C.3     1  UNL1        0.2321
     11 C          25.7358   36.4433   30.1281 C.ar    1  UNL1        0.0242
     12 C          25.0092   36.3077   31.3012 C.ar    1  UNL1        0.0200
     13 C          25.0828   35.1208   32.0055 C.ar    1  UNL1        0.0987
     14 N          25.8397   34.1289   31.5785 N.ar    1  UNL1       -0.2423
     15 C          26.5476   34.2244   30.4700 C.ar    1  UNL1        0.0987
     16 C          26.5202   35.3790   29.7109 C.ar    1  UNL1        0.0200
     17 C          20.1373   38.9418   31.1886 C.2     1  UNL1        0.2202
     18 O          20.6740   38.9022   32.2814 O.2     1  UNL1       -0.2843
     19 C          16.5085   39.2989   31.5332 C.ar    1  UNL1        0.0846
     20 C          17.8198   39.4774   32.0289 C.ar    1  UNL1        0.0042
     21 C          18.6730   38.9727   31.0908 C.ar    1  UNL1        0.0927
     22 N          17.9250   38.5007   30.0345 N.ar    1  UNL1       -0.3540
     23 C          16.6216   38.6907   30.2958 C.ar    1  UNL1        0.0400
     24 C          15.4767   38.3058   29.3947 C.3     1  UNL1        0.0500
     25 C          18.2030   40.1001   33.3465 C.3     1  UNL1        0.0329
     26 H          18.2885   38.0892   29.2174 H       1  UNL1        0.1657
     27 C          15.2578   39.6874   32.2064 C.2     1  UNL1        0.3420
     28 O          15.1539   40.7903   32.7063 O.2     1  UNL1       -0.2449
     29 O          14.2283   38.8199   32.2682 O.3     1  UNL1       -0.4454
     30 C          12.1533   38.1792   31.1663 C.3     1  UNL1        0.0513
     31 C          12.9277   39.3094   31.8474 C.3     1  UNL1        0.2089
     32 C          21.1428   40.1819   29.2460 C.1     1  UNL1        0.1037
     33 N          21.2904   41.1523   28.6742 N.1     1  UNL1       -0.1907
@<TRIPOS>BOND
     1    30    31    1
     2    31    29    1
     3    29    27    1
     4    27    28    2
     5    27    19    1
     6    19    23   ar
     7    19    20   ar
     8    20    21   ar
     9    20    25    1
    10    21    22   ar
    11    21    17    1
    12    22    23   ar
    13    23    24    1
    14    17    18    2
    15    17     1    1
    16     1     2    2
    17     1    32    1
    18     2     3    1
    19     3     8   ar
    20     3     4   ar
    21     4     5   ar
    22     5     6   ar
    23     6     7   ar
    24     7     8   ar
    25     8     9    1
    26     9    10    1
    27    10    11    1
    28    11    16   ar
    29    11    12   ar
    30    12    13   ar
    31    13    14   ar
    32    14    15   ar
    33    15    16   ar
    34    32    33    3
    35    22    26    1
@<TRIPOS>MOLECULE
ZINC26711155
 34 36 0 0 0
SMALL
GASTEIGER

@<TRIPOS>ATOM
      1 C          23.3668   40.3134   27.6461 C.2     1  UNL1        0.3417
      2 O          23.4224   40.0908   26.4529 O.2     1  UNL1       -0.2449
      3 C          24.0612   41.4855   28.2106 C.ar    1  UNL1        0.0802
      4 C          23.5054   42.7590   28.0852 C.ar    1  UNL1        0.0066
      5 C          24.1593   43.8521   28.6151 C.ar    1  UNL1        0.0002
      6 C          25.3684   43.6962   29.2738 C.ar    1  UNL1        0.0002
      7 C          25.9357   42.4459   29.4086 C.ar    1  UNL1        0.0049
      8 C          25.2942   41.3279   28.8752 C.ar    1  UNL1        0.0598
      9 C          25.8989   39.9896   29.0109 C.ar    1  UNL1        0.2299
     10 N          26.9742   39.5687   28.3831 N.ar    1  UNL1       -0.2066
     11 C          27.2254   38.3099   28.7524 C.ar    1  UNL1        0.1395
     12 C          26.2650   37.9405   29.6447 C.ar    1  UNL1        0.1662
     13 O          25.4438   39.0014   29.8022 O.2     1  UNL1       -0.4345
     14 C          26.1474   36.6308   30.3173 C.ar    1  UNL1        0.0362
     15 C          25.3480   36.4955   31.4542 C.ar    1  UNL1        0.0031
     16 C          25.2389   35.2683   32.0747 C.ar    1  UNL1        0.0001
     17 C          25.9279   34.1753   31.5793 C.ar    1  UNL1        0.0000
     18 C          26.7256   34.3034   30.4558 C.ar    1  UNL1        0.0001
     19 C          26.8395   35.5235   29.8225 C.ar    1  UNL1        0.0031
     20 O          22.6707   39.4892   28.4537 O.3     1  UNL1       -0.4397
     21 C          21.4345   38.9393   27.9268 C.3     1  UNL1        0.2448
     22 C          21.7459   37.7036   27.0802 C.3     1  UNL1        0.0575
     23 N          19.8196   39.5709   32.4106 N.am    1  UNL1       -0.2886
     24 C          19.7707   38.8876   31.2499 C.2     1  UNL1        0.3066
     25 O          18.9975   37.9584   31.1239 O.2     1  UNL1       -0.2524
     26 N          20.5794   39.2346   30.2290 N.am    1  UNL1       -0.2367
     27 C          20.5304   38.5513   29.0684 C.2     1  UNL1        0.2696
     28 O          19.7591   37.6245   28.9427 O.2     1  UNL1       -0.2708
     29 H          20.4460   40.3236   32.5126 H       1  UNL1        0.1510
     30 H          21.2058   39.9872   30.3311 H       1  UNL1        0.1592
     31 C          18.9407   39.1937   33.5203 C.3     1  UNL1        0.0909
     32 C          19.7805   38.9501   34.7758 C.3     1  UNL1        0.0213
     33 C          19.3803   41.3048   35.5092 C.3     1  UNL1        0.0001
     34 C          20.4521   40.2572   35.2016 C.3     1  UNL1        0.0017
@<TRIPOS>BOND
     1    33    34    1
     2    34    32    1
     3    32    31    1
     4    31    23    1
     5    23    24   am
     6    24    25    2
     7    24    26   am
     8    26    27   am
     9    27    28    2
    10    27    21    1
    11    21    22    1
    12    21    20    1
    13    20     1    1
    14     1     2    2
    15     1     3    1
    16     3     8   ar
    17     3     4   ar
    18     4     5   ar
    19     5     6   ar
    20     6     7   ar
    21     7     8   ar
    22     8     9    1
    23     9    13   ar
    24     9    10   ar
    25    10    11   ar
    26    11    12   ar
    27    12    13   ar
    28    12    14    1
    29    14    19   ar
    30    14    15   ar
    31    15    16   ar
    32    16    17   ar
    33    17    18   ar
    34    18    19   ar
    35    23    29    1
    36    26    30    1
@<TRIPOS>MOLECULE
ZINC21443729
 31 33 0 0 0
SMALL
GASTEIGER

@<TRIPOS>ATOM
      1 C          14.5184   37.3223   28.6017 C.2     1  UNL1        0.2262
      2 O          14.9957   36.4134   29.2478 O.2     1  UNL1       -0.2748
      3 N          14.5808   38.5854   29.0672 N.am    1  UNL1       -0.2839
      4 H          14.2553   39.3310   28.5127 H       1  UNL1        0.1549
      5 C          15.1089   38.8377   30.3404 C.ar    1  UNL1        0.0504
      6 C          14.2566   39.0569   31.4146 C.ar    1  UNL1        0.0159
      7 C          14.7767   39.3054   32.6690 C.ar    1  UNL1        0.0159
      8 C          16.1527   39.3361   32.8566 C.ar    1  UNL1        0.0484
      9 C          17.0051   39.1224   31.7808 C.ar    1  UNL1        0.0159
     10 C          16.4845   38.8678   30.5278 C.ar    1  UNL1        0.0159
     11 N          16.6801   39.5878   34.1278 N.pl3   1  UNL1       -0.3125
     12 H          16.0974   39.5432   34.9201 H       1  UNL1        0.1522
     13 C          18.0333   39.9025   34.2728 C.ar    1  UNL1        0.0483
     14 C          18.9757   38.8881   34.3872 C.ar    1  UNL1        0.0146
     15 C          20.3120   39.2029   34.5366 C.ar    1  UNL1        0.0013
     16 C          20.7139   40.5259   34.5605 C.ar    1  UNL1        0.0001
     17 C          19.7785   41.5382   34.4475 C.ar    1  UNL1        0.0013
     18 C          18.4399   41.2307   34.3035 C.ar    1  UNL1        0.0146
     19 C          13.8556   37.0388   27.2782 C.3     1  UNL1        0.0869
     20 C          12.4256   37.5827   27.2971 C.3     1  UNL1        0.0287
     21 C          12.1158   38.2496   25.9554 C.3     1  UNL1        0.0964
     22 C          10.5066   36.2898   25.8617 C.3     1  UNL1        0.1149
     23 N          10.9966   37.5566   25.3126 N.3     1  UNL1       -0.1536
     24 S          10.2851   38.2052   23.9651 S.O2    1  UNL1        0.0690
     25 O          10.9086   37.5953   22.8433 O.2     1  UNL1       -0.1523
     26 O           8.8817   38.1498   24.1804 O.2     1  UNL1       -0.1523
     27 C          10.7202   39.9120   23.9167 C.ar    1  UNL1        0.1516
     28 C          10.1454   40.9579   24.5591 C.ar    1  UNL1        0.0271
     29 C          10.6634   42.2258   24.3726 C.ar    1  UNL1        0.0089
     30 C          11.7244   42.3872   23.5445 C.ar    1  UNL1        0.0368
     31 S          12.0280   40.7133   23.0030 S.2     1  UNL1       -0.0668
@<TRIPOS>BOND
     1    22    23    1
     2    23    21    1
     3    23    24    1
     4    21    20    1
     5    20    19    1
     6    19     1    1
     7     1     2    2
     8     1     3   am
     9     3     5    1
    10     5    10   ar
    11     5     6   ar
    12     6     7   ar
    13     7     8   ar
    14     8     9   ar
    15     8    11    1
    16     9    10   ar
    17    11    13    1
    18    13    18   ar
    19    13    14   ar
    20    14    15   ar
    21    15    16   ar
    22    16    17   ar
    23    17    18   ar
    24    24    25    2
    25    24    26    2
    26    24    27    1
    27    27    31   ar
    28    27    28   ar
    29    28    29   ar
    30    29    30   ar
    31    30    31   ar
    32     3     4    1
    33    11    12    1
@<TRIPOS>MOLECULE
ZINC16303852
 31 32 0 0 0
SMALL
GASTEIGER

@<TRIPOS>ATOM
      1 N          13.1430   38.5764   29.9154 N.am    1  UNL1       -0.2839
      2 C          13.0906   37.5224   29.0771 C.2     1  UNL1        0.2257
      3 O          13.9989   36.7189   29.0555 O.2     1  UNL1       -0.2748
      4 H          12.3773   39.1917   29.9811 H       1  UNL1        0.1549
      5 C          16.5460   39.2313   32.2289 C.ar    1  UNL1        0.0003
      6 C          15.2787   39.2472   32.8239 C.ar    1  UNL1        0.0013
      7 C          14.1576   39.0301   32.0559 C.ar    1  UNL1        0.0147
      8 C          14.2821   38.7955   30.6898 C.ar    1  UNL1        0.0503
      9 C          15.5402   38.7732   30.0950 C.ar    1  UNL1        0.0147
     10 C          16.6665   38.9944   30.8542 C.ar    1  UNL1        0.0013
     11 C          18.9417   38.9814   32.6388 C.2     1  UNL1        0.0819
     12 C          17.7461   39.4621   33.0448 C.2     1  UNL1        0.0066
     13 C          20.0996   39.2041   33.4261 C.2     1  UNL1        0.3414
     14 O          21.1906   39.2843   32.8942 O.2     1  UNL1       -0.2449
     15 O          19.9914   39.3269   34.7655 O.3     1  UNL1       -0.4454
     16 C          19.2628   41.5006   35.5301 C.3     1  UNL1        0.0513
     17 C          20.4481   40.5513   35.3437 C.3     1  UNL1        0.2089
     18 C          11.9034   37.3421   28.1666 C.3     1  UNL1        0.0802
     19 C          12.3020   36.4668   26.9762 C.3     1  UNL1        0.0305
     20 C          11.0840   36.2571   26.0711 C.3     1  UNL1        0.0913
     21 N          10.5397   37.5702   25.6991 N.pl3   1  UNL1       -0.3064
     22 C          10.2126   38.5271   26.7648 C.3     1  UNL1        0.0913
     23 C          11.4352   38.7092   27.6625 C.3     1  UNL1        0.0305
     24 C          10.3473   37.8964   24.3902 C.2     1  UNL1        0.0646
     25 C          10.6866   39.1298   23.9422 C.2     1  UNL1        0.0619
     26 C          10.5857   39.4321   22.5769 C.2     1  UNL1        0.2680
     27 O          10.0961   38.6257   21.8106 O.2     1  UNL1       -0.2824
     28 C          11.0789   40.7591   22.0604 C.3     1  UNL1        0.4555
     29 F          11.0018   40.7737   20.6636 F       1  UNL1       -0.1631
     30 F          10.2856   41.7865   22.5821 F       1  UNL1       -0.1631
     31 F          12.4074   40.9490   22.4560 F       1  UNL1       -0.1631
@<TRIPOS>BOND
     1    16    17    1
     2    17    15    1
     3    15    13    1
     4    13    14    2
     5    13    11    1
     6    11    12    2
     7    12     5    1
     8     5    10   ar
     9     5     6   ar
    10     6     7   ar
    11     7     8   ar
    12     8     9   ar
    13     8     1    1
    14     9    10   ar
    15     1     2   am
    16     2     3    2
    17     2    18    1
    18    18    23    1
    19    18    19    1
    20    19    20    1
    21    20    21    1
    22    21    22    1
    23    21    24    1
    24    22    23    1
    25    24    25    2
    26    25    26    1
    27    26    27    2
    28    26    28    1
    29    28    29    1
    30    28    30    1
    31    28    31    1
    32     1     4    1
@<TRIPOS>MOLECULE
ZINC28433147
 34 37 0 0 0
SMALL
GASTEIGER

@<TRIPOS>ATOM
      1 N          18.9057   38.8730   32.2172 N.am    1  UNL1       -0.2807
      2 C          19.6517   38.9942   31.1013 C.2     1  UNL1        0.2708
      3 O          20.5155   39.8431   31.0385 O.2     1  UNL1       -0.2707
      4 H          18.1617   38.2287   32.2446 H       1  UNL1        0.1550
      5 C          18.2426   40.5856   33.7979 C.ar    1  UNL1        0.0668
      6 C          18.5373   41.3683   34.9168 C.ar    1  UNL1        0.0058
      7 C          19.7506   41.2265   35.5544 C.ar    1  UNL1        0.0002
      8 C          20.6816   40.3106   35.0916 C.ar    1  UNL1        0.0013
      9 C          20.4022   39.5263   33.9907 C.ar    1  UNL1        0.0148
     10 C          19.1873   39.6594   33.3319 C.ar    1  UNL1        0.0548
     11 N          16.2389   39.6378   32.7647 N.am    1  UNL1       -0.2984
     12 C          16.9453   40.7320   33.1107 C.2     1  UNL1        0.2471
     13 O          16.5137   41.8399   32.8566 O.2     1  UNL1       -0.2701
     14 H          16.5885   38.7408   32.9705 H       1  UNL1        0.1498
     15 C          14.9507   39.7831   32.0822 C.3     1  UNL1        0.1219
     16 C          15.1270   39.4868   30.5915 C.3     1  UNL1        0.1634
     17 C          13.0321   38.3463   30.8277 C.3     1  UNL1        0.1742
     18 O          14.3318   38.3547   30.2337 O.3     1  UNL1       -0.3493
     19 C          19.4122   38.0750   29.9314 C.3     1  UNL1        0.2930
     20 O          20.2445   38.4858   28.8147 O.3     1  UNL1       -0.4353
     21 C          20.8803   37.5113   28.1346 C.2     1  UNL1        0.3417
     22 O          20.3011   36.4755   27.8730 O.2     1  UNL1       -0.2449
     23 C          22.2775   37.7018   27.7081 C.ar    1  UNL1        0.0756
     24 C          22.5969   37.9399   26.3731 C.ar    1  UNL1        0.0061
     25 C          23.9097   38.1236   25.9533 C.ar    1  UNL1       -0.0041
     26 C          24.9490   38.0785   26.8351 C.ar    1  UNL1       -0.0221
     27 C          24.6774   37.8364   28.1781 C.ar    1  UNL1       -0.0077
     28 C          23.3746   37.6485   28.6707 C.ar    1  UNL1        0.0056
     29 C          23.2137   37.4183   30.0413 C.ar    1  UNL1        0.0002
     30 C          24.3237   37.3909   30.8388 C.ar    1  UNL1       -0.0003
     31 C          25.6098   37.5849   30.3314 C.ar    1  UNL1       -0.0043
     32 C          25.7986   37.8123   29.0020 C.ar    1  UNL1       -0.0221
     33 C          27.0049   38.0584   28.1293 C.3     1  UNL1        0.0310
     34 C          26.4461   38.2340   26.7008 C.3     1  UNL1        0.0310
@<TRIPOS>BOND
     1    17    18    1
     2    18    16    1
     3    16    15    1
     4    15    11    1
     5    11    12   am
     6    12    13    2
     7    12     5    1
     8     5    10   ar
     9     5     6   ar
    10     6     7   ar
    11     7     8   ar
    12     8     9   ar
    13     9    10   ar
    14    10     1    1
    15     1     2   am
    16     2     3    2
    17     2    19    1
    18    19    20    1
    19    20    21    1
    20    21    22    2
    21    21    23    1
    22    23    28   ar
    23    23    24   ar
    24    24    25   ar
    25    25    26   ar
    26    26    34    1
    27    26    27   ar
    28    27    32   ar
    29    27    28   ar
    30    28    29   ar
    31    29    30   ar
    32    30    31   ar
    33    31    32   ar
    34    32    33    1
    35    33    34    1
    36    11    14    1
    37     1     4    1
@<TRIPOS>MOLECULE
ZINC21183284
 32 34 0 0 0
SMALL
GASTEIGER

@<TRIPOS>ATOM
      1 N          17.5490   39.4262   31.8604 N.ar    1  UNL1       -0.3119
      2 C          16.1789   39.2810   31.7715 C.ar    1  UNL1        0.0788
      3 C          15.1128   39.6527   32.5793 C.ar    1  UNL1        0.0201
      4 C          13.8249   39.3489   32.1928 C.ar    1  UNL1        0.0215
      5 C          13.5881   38.6749   31.0031 C.ar    1  UNL1        0.1233
      6 C          14.6251   38.2964   30.1983 C.ar    1  UNL1        0.0405
      7 C          15.9387   38.5987   30.5669 C.ar    1  UNL1        0.0998
      8 N          17.1484   38.3675   29.9952 N.ar    1  UNL1       -0.2271
      9 C          18.0895   38.8517   30.7520 C.ar    1  UNL1        0.1650
     10 S          11.9336   38.2971   30.5291 S.O2    1  UNL1        0.0572
     11 O          11.3750   37.5259   31.5839 O.2     1  UNL1       -0.1532
     12 O          11.9923   37.8262   29.1897 O.2     1  UNL1       -0.1532
     13 N          11.0965   39.7254   30.4925 N.3     1  UNL1       -0.2035
     14 H          11.0282   40.1038   31.4372 H       1  UNL1        0.1442
     15 H          10.1599   39.5612   30.1235 H       1  UNL1        0.1442
     16 C          18.2843   40.0786   32.9466 C.3     1  UNL1        0.1073
     17 C          18.9050   39.0140   33.8534 C.3     1  UNL1        0.0245
     18 C          20.5156   40.3205   35.2468 C.3     1  UNL1        0.0001
     19 C          20.3829   39.3374   34.0820 C.3     1  UNL1        0.0020
     20 C          19.5635   38.7863   30.4451 C.3     1  UNL1        0.2718
     21 O          19.7622   38.1015   29.2067 O.3     1  UNL1       -0.4371
     22 C          20.4413   38.7599   28.2448 C.2     1  UNL1        0.3418
     23 O          20.5009   38.3012   27.1197 O.2     1  UNL1       -0.2449
     24 C          21.1055   40.0244   28.5542 C.2     1  UNL1        0.0819
     25 C          22.3447   40.2702   28.0783 C.2     1  UNL1        0.0067
     26 C          23.0130   41.5428   28.3897 C.ar    1  UNL1        0.0004
     27 C          24.4101   41.6163   28.4094 C.ar    1  UNL1        0.0023
     28 C          25.0298   42.8126   28.6980 C.ar    1  UNL1        0.0296
     29 C          24.2720   43.9400   28.9777 C.ar    1  UNL1        0.1401
     30 C          22.8867   43.8728   28.9645 C.ar    1  UNL1        0.0296
     31 C          22.2544   42.6838   28.6732 C.ar    1  UNL1        0.0023
     32 F          24.8858   45.1087   29.2645 F       1  UNL1       -0.2042
@<TRIPOS>BOND
     1    18    19    1
     2    19    17    1
     3    17    16    1
     4    16     1    1
     5     1     9   ar
     6     1     2   ar
     7     2     7   ar
     8     2     3   ar
     9     3     4   ar
    10     4     5   ar
    11     5     6   ar
    12     5    10    1
    13     6     7   ar
    14     7     8   ar
    15     8     9   ar
    16     9    20    1
    17    20    21    1
    18    21    22    1
    19    22    23    2
    20    22    24    1
    21    24    25    2
    22    25    26    1
    23    26    31   ar
    24    26    27   ar
    25    27    28   ar
    26    28    29   ar
    27    29    30   ar
    28    29    32    1
    29    30    31   ar
    30    10    11    2
    31    10    12    2
    32    10    13    1
    33    13    14    1
    34    13    15    1
@<TRIPOS>MOLECULE
ZINC25657975
 33 35 0 0 0
SMALL
GASTEIGER

@<TRIPOS>ATOM
      1 O          21.6431   38.3444   30.0141 O.3     1  UNL1       -0.4387
      2 C          23.8224   37.2681   29.8644 C.3     1  UNL1        0.0575
      3 C          22.6752   37.9164   29.0868 C.3     1  UNL1        0.2447
      4 C          23.1944   39.1099   28.3272 C.2     1  UNL1        0.2664
      5 O          22.8550   39.2912   27.1769 O.2     1  UNL1       -0.2709
      6 N          24.0358   39.9759   28.9260 N.am    1  UNL1       -0.2808
      7 H          24.2579   39.8673   29.8789 H       1  UNL1        0.1550
      8 C          24.5936   41.0293   28.1933 C.ar    1  UNL1        0.0565
      9 C          23.9251   42.2426   28.1027 C.ar    1  UNL1        0.0518
     10 C          24.4810   43.2879   27.3812 C.ar    1  UNL1        0.1430
     11 C          25.6993   43.1177   26.7405 C.ar    1  UNL1        0.0738
     12 C          26.3649   41.9040   26.8256 C.ar    1  UNL1        0.1430
     13 C          25.8127   40.8598   27.5516 C.ar    1  UNL1        0.0518
     14 O          27.5587   41.7384   26.1979 O.3     1  UNL1       -0.4713
     15 C          27.7391   40.5311   25.4551 C.3     1  UNL1        0.2525
     16 O          23.8298   44.4776   27.2975 O.3     1  UNL1       -0.4713
     17 C          24.3574   45.5614   28.0651 C.3     1  UNL1        0.2525
     18 C          20.3674   38.0534   29.6872 C.2     1  UNL1        0.3574
     19 O          20.1261   37.4433   28.6634 O.2     1  UNL1       -0.2433
     20 C          19.2704   38.4730   30.5671 C.ar    1  UNL1        0.1334
     21 C          19.4114   38.9358   31.8383 C.ar    1  UNL1        0.0280
     22 C          18.1208   39.2289   32.3357 C.ar    1  UNL1        0.0514
     23 C          17.2039   38.9228   31.3113 C.ar    1  UNL1        0.0597
     24 N          17.9273   38.4614   30.2365 N.ar    1  UNL1       -0.3480
     25 C          15.8429   39.1168   31.5274 C.ar    1  UNL1        0.0172
     26 C          15.3985   39.6047   32.7368 C.ar    1  UNL1        0.0046
     27 C          16.2945   39.9049   33.7526 C.ar    1  UNL1        0.0372
     28 C          17.6507   39.7267   33.5635 C.ar    1  UNL1        0.1456
     29 H          17.5513   38.1709   29.3742 H       1  UNL1        0.1661
     30 O          18.5241   40.0250   34.5590 O.3     1  UNL1       -0.4236
     31 C          18.7580   41.4098   34.8236 C.3     1  UNL1        0.5087
     32 F          19.6609   41.9180   33.8836 F       1  UNL1       -0.1550
     33 F          19.2913   41.5553   36.1088 F       1  UNL1       -0.1550
@<TRIPOS>BOND
     1     2     3    1
     2     3     4    1
     3     3     1    1
     4     4     5    2
     5     4     6   am
     6     6     8    1
     7     8    13   ar
     8     8     9   ar
     9     9    10   ar
    10    10    11   ar
    11    10    16    1
    12    11    12   ar
    13    12    13   ar
    14    12    14    1
    15    14    15    1
    16    16    17    1
    17     1    18    1
    18    18    19    2
    19    18    20    1
    20    20    24   ar
    21    20    21   ar
    22    21    22   ar
    23    22    28   ar
    24    22    23   ar
    25    23    24   ar
    26    23    25   ar
    27    25    26   ar
    28    26    27   ar
    29    27    28   ar
    30    28    30    1
    31    30    31    1
    32    31    32    1
    33    31    33    1
    34     6     7    1
    35    24    29    1
@<TRIPOS>MOLECULE
ZINC27441256
 34 36 0 0 0
SMALL
GASTEIGER

@<TRIPOS>ATOM
      1 C          19.0311   38.1736   31.3833 C.3     1  UNL1        0.1336
      2 C          19.9025   38.3497   30.1664 C.2     1  UNL1        0.3194
      3 O          19.8262   37.5658   29.2501 O.2     1  UNL1       -0.2500
      4 O          20.7635   39.3773   30.1006 O.3     1  UNL1       -0.4427
      5 C          21.8817   39.2426   29.1841 C.3     1  UNL1        0.2442
      6 C          22.2746   40.6028   28.6676 C.2     1  UNL1        0.2675
      7 O          21.4187   41.4071   28.3654 O.2     1  UNL1       -0.2708
      8 N          23.5770   40.9253   28.5414 N.am    1  UNL1       -0.2638
      9 H          24.2718   40.2723   28.7866 H       1  UNL1        0.1565
     10 C          23.9407   42.1843   28.0634 C.ar    1  UNL1        0.1760
     11 C          23.9554   43.4022   28.7940 C.ar    1  UNL1        0.0734
     12 C          24.3768   44.3183   27.8926 C.ar    1  UNL1        0.1562
     13 O          24.5822   43.6588   26.7433 O.2     1  UNL1       -0.3565
     14 N          24.3418   42.4791   26.8547 N.ar    1  UNL1       -0.0621
     15 C          24.5774   45.7923   28.1334 C.3     1  UNL1        0.0754
     16 C          23.4089   37.2671   29.2733 C.3     1  UNL1        0.0044
     17 C          23.0684   38.6130   29.9165 C.3     1  UNL1        0.0533
     18 C          18.3499   39.5018   31.7193 C.3     1  UNL1        0.1055
     19 C          18.8637   40.0093   33.0420 C.ar    1  UNL1       -0.0040
     20 C          18.1721   40.9960   33.7195 C.ar    1  UNL1       -0.0027
     21 C          18.6411   41.4584   34.9349 C.ar    1  UNL1       -0.0003
     22 C          19.8067   40.9409   35.4681 C.ar    1  UNL1       -0.0000
     23 C          20.5009   39.9575   34.7884 C.ar    1  UNL1       -0.0003
     24 C          20.0297   39.4921   33.5750 C.ar    1  UNL1       -0.0027
     25 N          16.9013   39.3001   31.8030 N.am    1  UNL1       -0.2982
     26 C          16.2060   38.9441   30.7047 C.2     1  UNL1        0.2460
     27 O          16.7808   38.7903   29.6448 O.2     1  UNL1       -0.2701
     28 H          16.4356   39.4247   32.6614 H       1  UNL1        0.1500
     29 C          14.7440   38.7407   30.7890 C.ar    1  UNL1        0.0534
     30 C          14.0114   39.3376   31.8162 C.ar    1  UNL1        0.0045
     31 C          12.6474   39.1443   31.8888 C.ar    1  UNL1        0.0001
     32 C          12.0055   38.3607   30.9462 C.ar    1  UNL1        0.0000
     33 C          12.7259   37.7661   29.9254 C.ar    1  UNL1        0.0001
     34 C          14.0903   37.9515   29.8414 C.ar    1  UNL1        0.0045
@<TRIPOS>BOND
     1    16    17    1
     2    17     5    1
     3     5     6    1
     4     5     4    1
     5     6     7    2
     6     6     8   am
     7     8    10    1
     8    10    14   ar
     9    10    11   ar
    10    11    12   ar
    11    12    13   ar
    12    12    15    1
    13    13    14   ar
    14     4     2    1
    15     2     3    2
    16     2     1    1
    17     1    18    1
    18    18    19    1
    19    18    25    1
    20    19    24   ar
    21    19    20   ar
    22    20    21   ar
    23    21    22   ar
    24    22    23   ar
    25    23    24   ar
    26    25    26   am
    27    26    27    2
    28    26    29    1
    29    29    34   ar
    30    29    30   ar
    31    30    31   ar
    32    31    32   ar
    33    32    33   ar
    34    33    34   ar
    35     8     9    1
    36    25    28    1
@<TRIPOS>MOLECULE
ZINC27316343
 33 34 0 0 0
SMALL
GASTEIGER

@<TRIPOS>ATOM
      1 O          20.8466   39.3539   28.9535 O.3     1  UNL1       -0.4352
      2 C          20.1119   38.4693   29.6559 C.2     1  UNL1        0.3446
      3 O          20.0515   37.3097   29.2979 O.2     1  UNL1       -0.2448
      4 C          19.3813   38.9082   30.8585 C.ar    1  UNL1        0.1086
      5 C          20.0805   39.3873   31.9700 C.ar    1  UNL1        0.0052
      6 C          19.3916   39.7964   33.0907 C.ar    1  UNL1       -0.0224
      7 C          18.0076   39.7354   33.1218 C.ar    1  UNL1       -0.0056
      8 C          17.3043   39.2645   32.0312 C.ar    1  UNL1        0.0111
      9 C          17.9811   38.8483   30.8942 C.ar    1  UNL1        0.1358
     10 O          17.2914   38.3857   29.8217 O.3     1  UNL1       -0.5056
     11 H          17.7508   38.1051   29.0548 H       1  UNL1        0.2922
     12 C          15.7992   39.2030   32.0757 C.3     1  UNL1        0.0253
     13 C          15.3365   39.0835   33.5293 C.3     1  UNL1        0.0048
     14 C          15.2183   40.4768   31.4587 C.3     1  UNL1        0.0048
     15 C          20.1467   40.3126   34.2883 C.3     1  UNL1        0.0223
     16 C          19.4922   41.6028   34.7865 C.3     1  UNL1        0.0047
     17 C          20.1171   39.2630   35.4011 C.3     1  UNL1        0.0047
     18 C          21.8325   38.8108   28.0363 C.3     1  UNL1        0.2927
     19 N          23.4519   37.4355   29.3032 N.am    1  UNL1       -0.3028
     20 C          23.1430   38.6287   28.7578 C.2     1  UNL1        0.2671
     21 O          23.9198   39.5558   28.8476 O.2     1  UNL1       -0.2711
     22 H          22.8214   36.6829   29.2303 H       1  UNL1        0.1495
     23 C          27.5811   34.6138   31.3179 C.2     1  UNL1        0.4049
     24 O          27.3893   34.0110   32.3554 O.2     1  UNL1       -0.2262
     25 N          26.8617   35.7183   31.0372 N.am    1  UNL1       -0.2459
     26 C          25.8418   36.2059   31.9758 C.3     1  UNL1        0.0984
     27 C          24.5151   36.3606   31.2257 C.3     1  UNL1        0.0412
     28 C          24.7258   37.2584   30.0044 C.3     1  UNL1        0.0751
     29 C          25.7413   36.6094   29.0612 C.3     1  UNL1        0.0412
     30 C          27.0819   36.4575   29.7867 C.3     1  UNL1        0.0984
     31 O          28.5126   34.1782   30.4487 O.3     1  UNL1       -0.4345
     32 C          27.2364   32.8293   28.8733 C.3     1  UNL1        0.0513
     33 C          28.3479   32.8342   29.9247 C.3     1  UNL1        0.2102
@<TRIPOS>BOND
     1    32    33    1
     2    33    31    1
     3    31    23    1
     4    23    24    2
     5    23    25   am
     6    25    30    1
     7    25    26    1
     8    26    27    1
     9    27    28    1
    10    28    29    1
    11    28    19    1
    12    29    30    1
    13    19    20   am
    14    20    21    2
    15    20    18    1
    16    18     1    1
    17     1     2    1
    18     2     3    2
    19     2     4    1
    20     4     9   ar
    21     4     5   ar
    22     5     6   ar
    23     6     7   ar
    24     6    15    1
    25     7     8   ar
    26     8     9   ar
    27     8    12    1
    28     9    10    1
    29    12    13    1
    30    12    14    1
    31    15    16    1
    32    15    17    1
    33    19    22    1
    34    10    11    1
@<TRIPOS>MOLECULE
ZINC28896934
 31 32 0 0 0
SMALL
GASTEIGER

@<TRIPOS>ATOM
      1 N          21.7305   39.2219   28.5931 N.am    1  UNL1       -0.2702
      2 C          21.3755   40.6419   28.5331 C.3     1  UNL1        0.1155
      3 C          22.9901   38.8299   28.3165 C.2     1  UNL1        0.2493
      4 O          23.2639   37.6463   28.2792 O.2     1  UNL1       -0.2699
      5 C          24.0387   39.8398   28.0583 C.ar    1  UNL1        0.0537
      6 C          24.9227   40.2078   29.0739 C.ar    1  UNL1        0.0059
      7 C          25.8990   41.1503   28.8261 C.ar    1  UNL1        0.0200
      8 C          26.0032   41.7304   27.5744 C.ar    1  UNL1        0.1219
      9 C          25.1268   41.3740   26.5649 C.ar    1  UNL1        0.0200
     10 C          24.1492   40.4288   26.7978 C.ar    1  UNL1        0.0059
     11 S          27.2529   42.9340   27.2667 S.O2    1  UNL1        0.0602
     12 O          27.1786   43.2522   25.8838 O.2     1  UNL1       -0.1530
     13 O          28.4424   42.4486   27.8739 O.2     1  UNL1       -0.1530
     14 N          26.8259   44.3050   28.0914 N.3     1  UNL1       -0.1794
     15 H          27.6377   44.9223   28.0766 H       1  UNL1        0.1488
     16 C          25.6804   45.1017   27.6447 C.3     1  UNL1        0.0914
     17 C          24.6000   45.0936   28.7279 C.3     1  UNL1        0.0175
     18 C          23.4599   44.1654   28.3041 C.3     1  UNL1        0.0015
     19 C          25.2008   44.5954   30.0438 C.3     1  UNL1        0.0015
     20 C          20.7166   38.2279   28.9537 C.3     1  UNL1        0.1205
     21 C          18.8937   39.3321   32.6585 C.ar    1  UNL1        0.0478
     22 C          20.2769   39.3472   32.5314 C.ar    1  UNL1        0.0142
     23 C          20.8627   38.9899   31.3329 C.ar    1  UNL1       -0.0013
     24 C          20.0738   38.6172   30.2599 C.ar    1  UNL1       -0.0022
     25 C          18.6963   38.6064   30.3813 C.ar    1  UNL1       -0.0013
     26 C          18.1043   38.9571   31.5787 C.ar    1  UNL1        0.0142
     27 N          18.2980   39.6924   33.8694 N.pl3   1  UNL1       -0.3075
     28 C          16.4047   41.2275   33.6694 C.3     1  UNL1        0.0232
     29 C          16.8397   39.7912   33.9674 C.3     1  UNL1        0.0908
     30 C          19.1317   39.9715   35.0413 C.3     1  UNL1        0.0908
     31 C          19.4513   41.4668   35.0954 C.3     1  UNL1        0.0232
@<TRIPOS>BOND
     1    28    29    1
     2    29    27    1
     3    27    30    1
     4    27    21    1
     5    30    31    1
     6    21    26   ar
     7    21    22   ar
     8    22    23   ar
     9    23    24   ar
    10    24    25   ar
    11    24    20    1
    12    25    26   ar
    13    20     1    1
    14     1     2    1
    15     1     3   am
    16     3     4    2
    17     3     5    1
    18     5    10   ar
    19     5     6   ar
    20     6     7   ar
    21     7     8   ar
    22     8     9   ar
    23     8    11    1
    24     9    10   ar
    25    11    12    2
    26    11    13    2
    27    11    14    1
    28    14    16    1
    29    16    17    1
    30    17    18    1
    31    17    19    1
    32    14    15    1
@<TRIPOS>MOLECULE
ZINC24098682
 31 33 0 0 0
SMALL
GASTEIGER

@<TRIPOS>ATOM
      1 S          23.7796   40.4472   27.3929 S.3     1  UNL1       -0.0840
      2 C          22.5325   39.4809   28.1776 C.ar    1  UNL1        0.1607
      3 N          22.5373   38.1971   28.4818 N.ar    1  UNL1       -0.1332
      4 N          21.4463   37.6378   29.1062 N.ar    1  UNL1       -0.1249
      5 C          20.3967   38.3849   29.3875 C.ar    1  UNL1        0.1865
      6 S          20.9235   39.9775   28.7737 S.2     1  UNL1       -0.0242
      7 N          19.2017   38.0292   30.0030 N.pl3   1  UNL1       -0.2912
      8 H          18.6586   37.2947   29.6360 H       1  UNL1        0.1541
      9 C          18.7718   38.7142   31.1423 C.ar    1  UNL1        0.0528
     10 C          17.4130   38.8751   31.3863 C.ar    1  UNL1        0.0149
     11 C          16.9884   39.5519   32.5128 C.ar    1  UNL1        0.0044
     12 C          17.9127   40.0706   33.4001 C.ar    1  UNL1        0.0370
     13 C          19.2708   39.9176   33.1591 C.ar    1  UNL1        0.1400
     14 C          19.7013   39.2346   32.0325 C.ar    1  UNL1        0.0515
     15 O          20.1780   40.4333   34.0296 O.3     1  UNL1       -0.4714
     16 C          20.2862   39.7988   35.3054 C.3     1  UNL1        0.2525
     17 C          25.3143   39.9311   28.2109 C.3     1  UNL1        0.0972
     18 C          26.0127   38.8679   27.3608 C.3     1  UNL1        0.1652
     19 O          25.0664   38.2724   26.4708 O.3     1  UNL1       -0.3798
     20 H          24.3548   37.8595   26.9846 H       1  UNL1        0.2105
     21 C          26.6019   37.7909   28.2740 C.3     1  UNL1        0.2352
     22 O          25.5782   36.8623   28.6373 O.3     1  UNL1       -0.4728
     23 C          25.5586   35.5269   32.5434 C.ar    1  UNL1        0.1388
     24 C          24.7809   36.6161   32.1789 C.ar    1  UNL1        0.0400
     25 C          24.7873   37.0626   30.8717 C.ar    1  UNL1        0.0400
     26 C          25.5720   36.4226   29.9241 C.ar    1  UNL1        0.1389
     27 C          26.3459   35.3305   30.2875 C.ar    1  UNL1        0.0400
     28 C          26.3429   34.8866   31.5955 C.ar    1  UNL1        0.0400
     29 O          25.5524   35.0873   33.8301 O.3     1  UNL1       -0.4755
     30 C          27.5778   36.0522   34.7285 C.3     1  UNL1        0.0512
     31 C          26.8171   34.7632   34.4111 C.3     1  UNL1        0.2055
@<TRIPOS>BOND
     1    30    31    1
     2    31    29    1
     3    29    23    1
     4    23    28   ar
     5    23    24   ar
     6    24    25   ar
     7    25    26   ar
     8    26    27   ar
     9    26    22    1
    10    27    28   ar
    11    22    21    1
    12    21    18    1
    13    18    17    1
    14    18    19    1
    15    17     1    1
    16     1     2    1
    17     2     6   ar
    18     2     3   ar
    19     3     4   ar
    20     4     5   ar
    21     5     6   ar
    22     5     7    1
    23     7     9    1
    24     9    14   ar
    25     9    10   ar
    26    10    11   ar
    27    11    12   ar
    28    12    13   ar
    29    13    14   ar
    30    13    15    1
    31    15    16    1
    32     7     8    1
    33    19    20    1
@<TRIPOS>MOLECULE
ZINC26339583
 31 33 0 0 0
SMALL
GASTEIGER

@<TRIPOS>ATOM
      1 N          12.9550   37.5070   27.1042 N.am    1  UNL1       -0.2634
      2 C          12.7148   37.5919   28.4277 C.2     1  UNL1        0.2390
      3 O          11.6157   37.9157   28.8250 O.2     1  UNL1       -0.2738
      4 H          13.8473   37.2439   26.7817 H       1  UNL1        0.1568
      5 C          10.7382   38.9684   24.6224 C.ar    1  UNL1        0.0897
      6 C           9.8326   37.9470   24.5487 C.ar    1  UNL1        0.0572
      7 S          10.5341   36.7969   25.7246 S.2     1  UNL1       -0.0508
      8 C          11.9434   37.7907   26.1949 C.ar    1  UNL1        0.1655
      9 N          11.7712   38.8630   25.4448 N.ar    1  UNL1       -0.2239
     10 C          10.0695   43.6872   21.3898 C.3     1  UNL1        0.0307
     11 C          10.2442   42.4522   22.2356 C.ar    1  UNL1       -0.0258
     12 C           9.7059   42.4076   23.5095 C.ar    1  UNL1       -0.0045
     13 C           9.8632   41.2796   24.2885 C.ar    1  UNL1        0.0012
     14 C          10.5654   40.1835   23.7896 C.ar    1  UNL1        0.0179
     15 C          11.1095   40.2360   22.5076 C.ar    1  UNL1       -0.0031
     16 C          10.9415   41.3675   21.7353 C.ar    1  UNL1       -0.0257
     17 C          11.5243   41.4237   20.3467 C.3     1  UNL1        0.0307
     18 C          13.8122   37.2843   29.4138 C.3     1  UNL1        0.1502
     19 S          14.0985   38.7279   30.4674 S.3     1  UNL1       -0.0658
     20 C          15.8577   38.6940   30.5612 C.ar    1  UNL1        0.1938
     21 N          16.6648   38.4003   29.5828 N.ar    1  UNL1       -0.1445
     22 N          17.9785   38.4802   30.0651 N.ar    1  UNL1       -0.2257
     23 C          17.9105   38.8386   31.3638 C.ar    1  UNL1        0.3454
     24 O          18.8553   39.0066   32.1145 O.2     1  UNL1       -0.2450
     25 N          16.6076   38.9770   31.6804 N.ar    1  UNL1       -0.2590
     26 H          18.7997   38.3067   29.5507 H       1  UNL1        0.1937
     27 C          16.0796   39.3574   32.9929 C.3     1  UNL1        0.1151
     28 C          16.0132   40.8826   33.0933 C.3     1  UNL1        0.0567
     29 C          16.8033   41.3479   34.3182 C.3     1  UNL1        0.1443
     30 O          18.1211   41.7293   33.9182 O.3     1  UNL1       -0.3510
     31 C          19.1363   41.3938   34.8663 C.3     1  UNL1        0.1741
@<TRIPOS>BOND
     1    10    11    1
     2    11    16   ar
     3    11    12   ar
     4    12    13   ar
     5    13    14   ar
     6    14    15   ar
     7    14     5    1
     8    15    16   ar
     9    16    17    1
    10     5     9   ar
    11     5     6   ar
    12     6     7   ar
    13     7     8   ar
    14     8     9   ar
    15     8     1    1
    16     1     2   am
    17     2     3    2
    18     2    18    1
    19    18    19    1
    20    19    20    1
    21    20    25   ar
    22    20    21   ar
    23    21    22   ar
    24    22    23   ar
    25    23    24    2
    26    23    25   ar
    27    25    27    1
    28    27    28    1
    29    28    29    1
    30    29    30    1
    31    30    31    1
    32     1     4    1
    33    22    26    1
@<TRIPOS>MOLECULE
ZINC23871189
 31 33 0 0 0
SMALL
GASTEIGER

@<TRIPOS>ATOM
      1 C          14.9134   37.4852   29.2906 C.3     1  UNL1        0.0507
      2 C          13.4110   37.5763   29.0160 C.3     1  UNL1        0.0048
      3 C          13.1599   37.4648   27.5109 C.3     1  UNL1        0.0118
      4 C          11.6635   37.6171   27.2308 C.3     1  UNL1        0.1096
      5 C          11.3725   37.1970   25.8131 C.2     1  UNL1        0.3172
      6 O          11.1219   36.0415   25.5648 O.2     1  UNL1       -0.2501
      7 O          11.3918   38.1067   24.8262 O.3     1  UNL1       -0.4477
      8 C           8.9795   38.3936   24.6565 C.3     1  UNL1        0.0524
      9 C          10.3289   39.0959   24.8206 C.3     1  UNL1        0.1920
     10 C          10.5396   40.0532   23.6760 C.ar    1  UNL1        0.0279
     11 C          10.7864   39.5679   22.4054 C.ar    1  UNL1        0.0000
     12 C          10.9800   40.4458   21.3555 C.ar    1  UNL1       -0.0002
     13 C          10.9327   41.8099   21.5765 C.ar    1  UNL1        0.0008
     14 C          10.6803   42.2961   22.8452 C.ar    1  UNL1        0.0112
     15 C          10.4864   41.4178   23.8966 C.ar    1  UNL1        0.0570
     16 CL         10.1759   42.0279   25.4919 Cl      1  UNL1       -0.0825
     17 C          15.4516   38.8722   29.6478 C.3     1  UNL1        0.1990
     18 N          16.2506   38.7854   30.8727 N.pl3   1  UNL1       -0.2205
     19 H          15.8045   38.7104   31.7471 H       1  UNL1        0.2922
     20 C          17.6263   38.8088   30.8009 C.2     1  UNL1        0.2976
     21 N          18.2269   38.5963   29.6734 N.2     1  UNL1       -0.1313
     22 S          19.8647   38.7076   29.9995 S.O2    1  UNL1        0.1388
     23 O          20.4272   37.4128   29.8386 O.2     1  UNL1       -0.1288
     24 O          20.3599   39.8645   29.3395 O.2     1  UNL1       -0.1288
     25 C          19.8055   39.0588   31.7354 C.ar    1  UNL1        0.1541
     26 C          18.4293   39.0814   32.0028 C.ar    1  UNL1        0.1006
     27 C          18.0330   39.3329   33.3249 C.ar    1  UNL1        0.0087
     28 C          18.9764   39.5576   34.3026 C.ar    1  UNL1        0.0003
     29 C          20.3275   39.5347   34.0070 C.ar    1  UNL1        0.0015
     30 C          20.7382   39.2816   32.7054 C.ar    1  UNL1        0.0226
     31 H          17.8065   38.4079   28.8033 H       1  UNL1        0.3389
@<TRIPOS>UNITY_ATOM_ATTR
21 1
charge 1
@<TRIPOS>BOND
     1     8     9    1
     2     9    10    1
     3     9     7    1
     4    10    15   ar
     5    10    11   ar
     6    11    12   ar
     7    12    13   ar
     8    13    14   ar
     9    14    15   ar
    10    15    16    1
    11     7     5    1
    12     5     6    2
    13     5     4    1
    14     4     3    1
    15     3     2    1
    16     2     1    1
    17     1    17    1
    18    17    18    1
    19    18    20    1
    20    20    26    1
    21    20    21    2
    22    21    22    1
    23    22    23    2
    24    22    24    2
    25    22    25    1
    26    25    30   ar
    27    25    26   ar
    28    26    27   ar
    29    27    28   ar
    30    28    29   ar
    31    29    30   ar
    32    18    19    1
    33    21    31    1
@<TRIPOS>MOLECULE
ZINC31424960
 34 37 0 0 0
SMALL
GASTEIGER

@<TRIPOS>ATOM
      1 C          25.3740   38.1701   29.2641 C.ar    1  UNL1        0.0279
      2 C          24.8355   37.2017   30.0918 C.ar    1  UNL1       -0.0002
      3 C          23.5718   37.3669   30.6212 C.ar    1  UNL1       -0.0001
      4 C          22.8343   38.5102   30.3166 C.ar    1  UNL1        0.0016
      5 C          23.3823   39.4865   29.4869 C.ar    1  UNL1        0.0294
      6 C          24.6490   39.3112   28.9618 C.ar    1  UNL1        0.1380
      7 F          25.1804   40.2536   28.1527 F       1  UNL1       -0.2044
      8 C          21.4737   38.6890   30.8776 C.ar    1  UNL1       -0.0059
      9 C          21.3082   39.1834   32.1687 C.ar    1  UNL1       -0.0006
     10 C          20.0398   39.3488   32.6869 C.ar    1  UNL1       -0.0000
     11 C          18.9267   39.0259   31.9295 C.ar    1  UNL1       -0.0006
     12 C          19.0732   38.5351   30.6476 C.ar    1  UNL1       -0.0066
     13 C          20.3453   38.3664   30.1082 C.ar    1  UNL1       -0.0150
     14 C          20.5073   37.8442   28.7295 C.ar    1  UNL1        0.0444
     15 N          20.5647   36.5771   28.3688 N.ar    1  UNL1       -0.2895
     16 N          20.7092   36.5378   27.0888 N.ar    1  UNL1       -0.2180
     17 N          20.7452   37.7388   26.6270 N.ar    1  UNL1       -0.2180
     18 N          20.6181   38.5684   27.6065 N.ar    1  UNL1       -0.2895
     19 C          26.7543   37.9830   28.6885 C.3     1  UNL1        0.1376
     20 C          26.4071   36.5320   26.7610 C.ar    1  UNL1        0.0404
     21 C          26.4703   35.3365   26.1313 C.ar    1  UNL1        0.0194
     22 C          26.9926   34.2126   26.8073 C.ar    1  UNL1        0.0815
     23 C          27.4323   34.3605   28.1105 C.ar    1  UNL1        0.0672
     24 C          27.3494   35.6291   28.7200 C.ar    1  UNL1        0.2612
     25 O          27.7362   35.7803   29.8672 O.2     1  UNL1       -0.2670
     26 N          26.8391   36.6723   28.0396 N.ar    1  UNL1       -0.2949
     27 C          27.0694   32.8942   26.1308 C.2     1  UNL1        0.3415
     28 O          26.7969   32.8003   24.9517 O.2     1  UNL1       -0.2449
     29 O          27.4414   31.8021   26.8248 O.3     1  UNL1       -0.4413
     30 C          26.9637   30.5192   26.3410 C.3     1  UNL1        0.2560
     31 C          25.8479   37.7262   26.0314 C.3     1  UNL1        0.0439
     32 C          24.3411   37.5455   25.8372 C.3     1  UNL1        0.0062
     33 C          24.8847   39.7858   24.8738 C.3     1  UNL1        0.0000
     34 C          23.7564   38.8013   25.1875 C.3     1  UNL1        0.0004
@<TRIPOS>UNITY_ATOM_ATTR
16 1
charge -1
@<TRIPOS>BOND
     1    33    34    1
     2    34    32    1
     3    32    31    1
     4    31    20    1
     5    20    26   ar
     6    20    21   ar
     7    21    22   ar
     8    22    23   ar
     9    22    27    1
    10    23    24   ar
    11    24    25    2
    12    24    26   ar
    13    26    19    1
    14    19     1    1
    15     1     6   ar
    16     1     2   ar
    17     2     3   ar
    18     3     4   ar
    19     4     5   ar
    20     4     8    1
    21     5     6   ar
    22     6     7    1
    23     8    13   ar
    24     8     9   ar
    25     9    10   ar
    26    10    11   ar
    27    11    12   ar
    28    12    13   ar
    29    13    14    1
    30    14    18   ar
    31    14    15   ar
    32    15    16   ar
    33    16    17   ar
    34    17    18   ar
    35    27    28    2
    36    27    29    1
    37    29    30    1
@<TRIPOS>MOLECULE
ZINC17427998
 33 36 0 0 0
SMALL
GASTEIGER

@<TRIPOS>ATOM
      1 C          26.8193   35.9465   26.2048 C.3     1  UNL1        0.0582
      2 C          27.0209   34.9919   27.4084 C.3     1  UNL1        0.0073
      3 C          26.5817   35.7787   28.6747 C.3     1  UNL1        0.0005
      4 C          25.6942   36.8850   28.0920 C.3     1  UNL1        0.0007
      5 C          26.4943   37.3082   26.8372 C.3     1  UNL1        0.0066
      6 C          25.6544   38.2385   25.9989 C.3     1  UNL1        0.0004
      7 C          25.0911   39.3973   26.8129 C.3     1  UNL1        0.0003
      8 C          24.5362   39.0569   28.1882 C.3     1  UNL1        0.0038
      9 C          25.4530   38.0990   28.9461 C.3     1  UNL1        0.0046
     10 C          24.8869   37.7442   30.3145 C.3     1  UNL1        0.0254
     11 C          23.4547   37.3217   30.2107 C.2     1  UNL1       -0.0345
     12 C          22.6636   37.7420   29.2738 C.2     1  UNL1       -0.0455
     13 C          23.0813   38.6525   28.1542 C.3     1  UNL1        0.0151
     14 C          22.1995   39.9112   28.2306 C.3     1  UNL1        0.0074
     15 C          20.7210   39.5422   28.2334 C.3     1  UNL1        0.0444
     16 C          20.3710   38.6229   29.4011 C.3     1  UNL1        0.1763
     17 C          21.1997   37.3362   29.3308 C.3     1  UNL1        0.0654
     18 C          22.7478   37.9466   26.8421 C.3     1  UNL1        0.0040
     19 C          27.8167   37.9840   27.2008 C.3     1  UNL1        0.0004
     20 C          28.0835   36.0449   25.3942 C.2     1  UNL1        0.1615
     21 O          29.1466   35.7714   25.8977 O.2     1  UNL1       -0.2955
     22 C          28.0229   36.4848   23.9541 C.3     1  UNL1        0.1737
     23 C          27.9844   35.2726   23.0597 C.2     1  UNL1        0.3246
     24 O          28.9582   34.9682   22.4123 O.2     1  UNL1       -0.2496
     25 O          26.8683   34.5308   22.9821 O.3     1  UNL1       -0.4482
     26 C          26.7341   32.6443   24.5161 C.3     1  UNL1        0.0513
     27 C          27.0256   33.0908   23.0821 C.3     1  UNL1        0.2086
     28 O          20.6426   39.3032   30.6551 O.3     1  UNL1       -0.4215
     29 C          19.7890   39.0773   31.6700 C.2     1  UNL1        0.5117
     30 O          18.9931   38.1626   31.6017 O.2     1  UNL1       -0.2028
     31 O          19.8168   39.8645   32.7605 O.3     1  UNL1       -0.4181
     32 C          19.2418   39.3235   33.9791 C.3     1  UNL1        0.2122
     33 C          20.1689   39.6252   35.1582 C.3     1  UNL1        0.0514
@<TRIPOS>BOND
     1    26    27    1
     2    27    25    1
     3    25    23    1
     4    23    24    2
     5    23    22    1
     6    22    20    1
     7    20    21    2
     8    20     1    1
     9     1     5    1
    10     1     2    1
    11     2     3    1
    12     3     4    1
    13     4     9    1
    14     4     5    1
    15     5     6    1
    16     5    19    1
    17     6     7    1
    18     7     8    1
    19     8    13    1
    20     8     9    1
    21     9    10    1
    22    10    11    1
    23    11    12    2
    24    12    17    1
    25    12    13    1
    26    13    14    1
    27    13    18    1
    28    14    15    1
    29    15    16    1
    30    16    17    1
    31    16    28    1
    32    28    29    1
    33    29    30    2
    34    29    31    1
    35    31    32    1
    36    32    33    1
@<TRIPOS>MOLECULE
ZINC11233069
 32 34 0 0 0
SMALL
GASTEIGER

@<TRIPOS>ATOM
      1 N          20.4711   39.1310   30.8215 N.am    1  UNL1       -0.2326
      2 C          19.3554   38.5804   30.3033 C.2     1  UNL1        0.2919
      3 O          19.4244   37.8960   29.3012 O.2     1  UNL1       -0.2661
      4 C          21.6794   38.9937   30.1639 C.ar    1  UNL1        0.1690
      5 N          22.6473   38.1171   30.3837 N.ar    1  UNL1       -0.2279
      6 C          23.7404   38.1098   29.6675 C.ar    1  UNL1        0.0736
      7 C          23.8646   39.0651   28.6672 C.ar    1  UNL1        0.1211
      8 S          22.3124   39.9324   28.8473 S.2     1  UNL1       -0.0450
      9 C          24.8322   37.1029   29.9227 C.3     1  UNL1        0.0529
     10 C          24.9604   39.2973   27.7288 C.2     1  UNL1        0.3486
     11 O          26.0288   39.7163   28.1328 O.2     1  UNL1       -0.2443
     12 O          24.7873   39.0471   26.4141 O.3     1  UNL1       -0.4451
     13 C          24.3410   37.7376   26.0562 C.3     1  UNL1        0.2089
     14 C          22.8855   37.8049   25.5892 C.3     1  UNL1        0.0513
     15 C          18.0482   38.8090   30.9533 C.ar    1  UNL1        0.2376
     16 N          17.8551   39.2929   32.1942 N.ar    1  UNL1       -0.2064
     17 C          16.5627   39.3502   32.3924 C.ar    1  UNL1        0.1429
     18 N          15.9582   38.8933   31.2766 N.ar    1  UNL1       -0.2145
     19 N          16.8677   38.5754   30.4209 N.ar    1  UNL1       -0.1397
     20 C          15.8746   39.8354   33.6424 C.3     1  UNL1        0.0738
     21 C          14.5745   38.7878   31.0790 C.ar    1  UNL1        0.0843
     22 C          13.7012   39.5199   31.8723 C.ar    1  UNL1        0.0215
     23 C          12.3380   39.4098   31.6803 C.ar    1  UNL1        0.0312
     24 C          11.8423   38.5781   30.6899 C.ar    1  UNL1        0.1402
     25 C          12.7119   37.8474   29.8975 C.ar    1  UNL1        0.0312
     26 C          14.0754   37.9504   30.0903 C.ar    1  UNL1        0.0215
     27 F          10.5087   38.4753   30.5005 F       1  UNL1       -0.2042
     28 C          20.4034   39.8750   32.0818 C.3     1  UNL1        0.1005
     29 C          21.1076   39.0789   33.1824 C.3     1  UNL1        0.0220
     30 C          20.2881   39.1571   34.4721 C.3     1  UNL1        0.0018
     31 C          19.2801   41.2946   35.2826 C.3     1  UNL1        0.0000
     32 C          20.5735   40.4842   35.1780 C.3     1  UNL1        0.0001
@<TRIPOS>BOND
     1    31    32    1
     2    32    30    1
     3    30    29    1
     4    29    28    1
     5    28     1    1
     6     1     4    1
     7     1     2   am
     8     4     8   ar
     9     4     5   ar
    10     5     6   ar
    11     6     7   ar
    12     6     9    1
    13     7     8   ar
    14     7    10    1
    15    10    11    2
    16    10    12    1
    17    12    13    1
    18    13    14    1
    19     2     3    2
    20     2    15    1
    21    15    19   ar
    22    15    16   ar
    23    16    17   ar
    24    17    18   ar
    25    17    20    1
    26    18    19   ar
    27    18    21    1
    28    21    26   ar
    29    21    22   ar
    30    22    23   ar
    31    23    24   ar
    32    24    25   ar
    33    24    27    1
    34    25    26   ar
@<TRIPOS>MOLECULE
ZINC24018054
 32 34 0 0 0
SMALL
GASTEIGER

@<TRIPOS>ATOM
      1 C          24.4717   40.3476   28.3594 C.2     1  UNL1        0.2514
      2 O          25.6306   40.4262   28.7078 O.2     1  UNL1       -0.2726
      3 N          23.7480   39.2531   28.6678 N.am    1  UNL1       -0.2373
      4 C          24.3544   38.1749   29.2916 C.ar    1  UNL1        0.1688
      5 N          25.1941   37.2994   28.7905 N.ar    1  UNL1       -0.2237
      6 C          25.7124   36.2893   29.5219 C.ar    1  UNL1        0.0886
      7 C          26.6190   35.2862   29.1071 C.ar    1  UNL1        0.0154
      8 C          27.0534   34.3285   29.9855 C.ar    1  UNL1       -0.0206
      9 C          26.6156   34.2997   31.3018 C.ar    1  UNL1       -0.0079
     10 C          25.7290   35.2652   31.7418 C.ar    1  UNL1       -0.0146
     11 C          25.2925   36.2318   30.8705 C.ar    1  UNL1        0.0457
     12 S          24.1932   37.6229   30.9839 S.2     1  UNL1       -0.0515
     13 C          25.2445   35.2561   33.1688 C.3     1  UNL1        0.0316
     14 C          28.0242   33.2788   29.5093 C.3     1  UNL1        0.0311
     15 C          23.8406   41.4736   27.5817 C.3     1  UNL1        0.1846
     16 C          25.3518   41.3411   24.1915 C.3     1  UNL1       -0.0137
     17 C          24.4813   40.7600   25.2880 C.2     1  UNL1        0.2111
     18 O          23.8584   39.7205   25.2550 O.2     1  UNL1       -0.2762
     19 N          24.5427   41.6401   26.3068 N.am    1  UNL1       -0.2376
     20 C          25.3287   42.6820   26.0122 C.2     1  UNL1        0.1380
     21 O          25.5427   43.6038   26.7748 O.2     1  UNL1       -0.2967
     22 N          25.8556   42.5953   24.7774 N.am    1  UNL1       -0.6124
     23 C          24.5246   41.6272   22.9367 C.3     1  UNL1       -0.0115
     24 C          23.0832   39.9376   21.7921 C.3     1  UNL1       -0.0000
     25 C          24.5240   40.3923   22.0335 C.3     1  UNL1       -0.0012
     26 C          26.5096   40.3939   23.8703 C.3     1  UNL1       -0.0115
     27 C          27.8026   41.1991   23.7269 C.3     1  UNL1       -0.0012
     28 C          28.2245   41.2292   22.2565 C.3     1  UNL1       -0.0000
     29 C          22.3203   39.2036   28.3433 C.3     1  UNL1        0.1001
     30 C          21.9356   37.7757   27.9513 C.3     1  UNL1        0.0203
     31 C          20.8197   37.2771   28.8718 C.3     1  UNL1        0.0018
     32 C          21.4466   37.7590   26.5016 C.3     1  UNL1        0.0018
@<TRIPOS>UNITY_ATOM_ATTR
22 1
charge -1
@<TRIPOS>BOND
     1    24    25    1
     2    25    23    1
     3    23    16    1
     4    16    22    1
     5    16    17    1
     6    16    26    1
     7    17    18    2
     8    17    19   am
     9    19    20   am
    10    19    15    1
    11    20    21    2
    12    20    22    1
    13    15     1    1
    14     1     2    2
    15     1     3   am
    16     3    29    1
    17     3     4    1
    18    29    30    1
    19    30    31    1
    20    30    32    1
    21     4    12   ar
    22     4     5   ar
    23     5     6   ar
    24     6    11   ar
    25     6     7   ar
    26     7     8   ar
    27     8     9   ar
    28     8    14    1
    29     9    10   ar
    30    10    11   ar
    31    10    13    1
    32    11    12   ar
    33    26    27    1
    34    27    28    1
@<TRIPOS>MOLECULE
ZINC28309471
 33 36 0 0 0
SMALL
GASTEIGER

@<TRIPOS>ATOM
      1 C          14.9654   37.5082   29.6081 C.3     1  UNL1        0.2776
      2 C          15.9731   38.5261   30.0765 C.2     1  UNL1        0.2335
      3 O          17.0058   38.6889   29.4562 O.2     1  UNL1       -0.2864
      4 C          18.5308   38.1713   31.0372 C.3     1  UNL1        0.2584
      5 N          18.0398   39.1383   32.0221 N.pl3   1  UNL1       -0.1668
      6 C          18.7893   39.7149   33.0411 C.ar    1  UNL1        0.1757
      7 C          20.1147   39.5855   33.4325 C.ar    1  UNL1        0.0439
      8 C          20.5846   40.2999   34.5161 C.ar    1  UNL1        0.0037
      9 C          19.7393   41.1456   35.2149 C.ar    1  UNL1        0.0037
     10 C          18.4196   41.2815   34.8342 C.ar    1  UNL1        0.0439
     11 C          17.9369   40.5678   33.7460 C.ar    1  UNL1        0.1757
     12 N          16.6897   40.4951   33.1361 N.pl3   1  UNL1       -0.1668
     13 C          16.7750   39.6281   32.0941 C.2     1  UNL1        0.2927
     14 C          15.7190   39.2868   31.2301 C.2     1  UNL1        0.1832
     15 C          15.4895   41.2279   33.5468 C.3     1  UNL1        0.2584
     16 C          14.3849   39.7147   31.5261 C.1     1  UNL1        0.1107
     17 N          13.3265   40.0543   31.7609 N.1     1  UNL1       -0.1905
     18 O          14.3561   37.9639   28.3713 O.3     1  UNL1       -0.4399
     19 C          13.4567   37.1486   27.7984 C.2     1  UNL1        0.3174
     20 O          13.8163   36.1097   27.2970 O.2     1  UNL1       -0.2501
     21 C          11.9986   37.5288   27.7808 C.3     1  UNL1        0.1096
     22 C          11.2689   36.7024   26.7200 C.3     1  UNL1        0.0121
     23 C          10.9703   37.5823   25.5045 C.3     1  UNL1        0.0074
     24 C          10.6793   39.0110   25.9683 C.3     1  UNL1        0.0526
     25 C          10.6571   39.9318   24.7755 C.ar    1  UNL1        0.0882
     26 N          11.1596   39.7310   23.5898 N.ar    1  UNL1       -0.2427
     27 C          11.0700   40.6443   22.6006 C.ar    1  UNL1        0.0875
     28 C          11.5585   40.5741   21.2770 C.ar    1  UNL1        0.0196
     29 C          11.3701   41.6068   20.4116 C.ar    1  UNL1        0.0016
     30 C          10.6973   42.7605   20.7898 C.ar    1  UNL1        0.0006
     31 C          10.2040   42.8678   22.0765 C.ar    1  UNL1        0.0080
     32 C          10.3888   41.8303   22.9578 C.ar    1  UNL1        0.0482
     33 S           9.9494   41.5121   24.6479 S.2     1  UNL1       -0.0708
@<TRIPOS>BOND
     1     4     5    1
     2     5    13    1
     3     5     6    1
     4     6    11   ar
     5     6     7   ar
     6     7     8   ar
     7     8     9   ar
     8     9    10   ar
     9    10    11   ar
    10    11    12    1
    11    12    13    1
    12    12    15    1
    13    13    14    2
    14    14    16    1
    15    14     2    1
    16    16    17    3
    17     2     3    2
    18     2     1    1
    19     1    18    1
    20    18    19    1
    21    19    20    2
    22    19    21    1
    23    21    22    1
    24    22    23    1
    25    23    24    1
    26    24    25    1
    27    25    33   ar
    28    25    26   ar
    29    26    27   ar
    30    27    32   ar
    31    27    28   ar
    32    28    29   ar
    33    29    30   ar
    34    30    31   ar
    35    31    32   ar
    36    32    33   ar
@<TRIPOS>MOLECULE
ZINC31643358
 34 37 0 0 0
SMALL
GASTEIGER

@<TRIPOS>ATOM
      1 C          14.8803   37.6029   29.2723 C.2     1  UNL1        0.2181
      2 O          15.1703   36.4882   28.8904 O.2     1  UNL1       -0.2873
      3 C          18.9736   39.5679   31.5844 C.3     1  UNL1        0.0500
      4 C          17.5650   39.1588   31.2383 C.ar    1  UNL1        0.0375
      5 C          17.2024   38.4594   30.1501 C.ar    1  UNL1        0.0168
      6 C          15.7446   38.2968   30.2297 C.ar    1  UNL1        0.0512
      7 C          15.3568   38.9281   31.3965 C.ar    1  UNL1        0.0402
      8 N          16.4546   39.4404   31.9805 N.ar    1  UNL1       -0.3320
      9 C          13.9477   39.0286   31.9212 C.3     1  UNL1        0.0501
     10 C          16.4589   40.1898   33.2394 C.3     1  UNL1        0.1074
     11 C          16.1974   41.6697   32.9528 C.3     1  UNL1        0.0294
     12 C          17.7997   40.0373   33.9102 C.ar    1  UNL1       -0.0018
     13 C          18.2606   38.7806   34.2559 C.ar    1  UNL1       -0.0025
     14 C          19.4925   38.6404   34.8673 C.ar    1  UNL1       -0.0003
     15 C          20.2593   39.7575   35.1412 C.ar    1  UNL1       -0.0000
     16 C          19.7961   41.0145   34.8002 C.ar    1  UNL1       -0.0003
     17 C          18.5662   41.1544   34.1849 C.ar    1  UNL1       -0.0025
     18 C          13.6310   38.2732   28.7615 C.3     1  UNL1        0.2766
     19 O          12.5356   37.3201   28.7620 O.3     1  UNL1       -0.4399
     20 C          11.9163   37.1029   27.5911 C.2     1  UNL1        0.3195
     21 O          11.2608   36.1006   27.4313 O.2     1  UNL1       -0.2500
     22 C          12.0386   38.1090   26.4759 C.3     1  UNL1        0.1360
     23 C          10.6465   38.6098   26.0860 C.3     1  UNL1        0.1441
     24 N          10.7061   39.2375   24.7636 N.ar    1  UNL1       -0.1981
     25 C          10.4310   40.5564   24.6281 C.ar    1  UNL1        0.2791
     26 O          10.1317   41.2422   25.5883 O.2     1  UNL1       -0.2654
     27 C          10.5121   41.1285   23.2754 C.ar    1  UNL1        0.0770
     28 C          10.2509   42.4760   23.0339 C.ar    1  UNL1        0.0064
     29 C          10.3349   42.9650   21.7487 C.ar    1  UNL1        0.0003
     30 C          10.6763   42.1262   20.6957 C.ar    1  UNL1        0.0016
     31 C          10.9376   40.7926   20.9129 C.ar    1  UNL1        0.0211
     32 C          10.8596   40.2727   22.2076 C.ar    1  UNL1        0.1091
     33 N          11.1101   38.9635   22.4586 N.ar    1  UNL1       -0.1301
     34 N          11.0413   38.4733   23.6428 N.ar    1  UNL1       -0.0614
@<TRIPOS>BOND
     1     3     4    1
     2     4     8   ar
     3     4     5   ar
     4     5     6   ar
     5     6     7   ar
     6     6     1    1
     7     7     8   ar
     8     7     9    1
     9     8    10    1
    10    10    11    1
    11    10    12    1
    12    12    17   ar
    13    12    13   ar
    14    13    14   ar
    15    14    15   ar
    16    15    16   ar
    17    16    17   ar
    18     1     2    2
    19     1    18    1
    20    18    19    1
    21    19    20    1
    22    20    21    2
    23    20    22    1
    24    22    23    1
    25    23    24    1
    26    24    34   ar
    27    24    25   ar
    28    25    26    2
    29    25    27   ar
    30    27    32   ar
    31    27    28   ar
    32    28    29   ar
    33    29    30   ar
    34    30    31   ar
    35    31    32   ar
    36    32    33   ar
    37    33    34   ar
@<TRIPOS>MOLECULE
ZINC20068129
 32 34 0 0 0
SMALL
GASTEIGER

@<TRIPOS>ATOM
      1 C          26.4465   39.5500   27.0177 C.ar    1  UNL1        0.2072
      2 C          25.3138   40.2928   26.7113 C.ar    1  UNL1        0.0430
      3 C          24.0637   39.7242   26.8163 C.ar    1  UNL1        0.0034
      4 C          23.9324   38.3977   27.2439 C.ar    1  UNL1        0.0034
      5 C          25.0744   37.6517   27.5580 C.ar    1  UNL1        0.0401
      6 C          26.3241   38.2281   27.4444 C.ar    1  UNL1        0.1753
      7 O          27.4357   37.5065   27.7491 O.3     1  UNL1       -0.4683
      8 C          27.3360   36.0850   27.6422 C.3     1  UNL1        0.2526
      9 C          22.5996   37.7904   27.3632 C.2     1  UNL1        0.0068
     10 C          21.9580   37.7972   28.5521 C.2     1  UNL1        0.0819
     11 C          20.6722   37.2111   28.6672 C.2     1  UNL1        0.3418
     12 O          20.3091   36.3776   27.8589 O.2     1  UNL1       -0.2449
     13 O          19.8511   37.5779   29.6732 O.3     1  UNL1       -0.4386
     14 C          19.8462   38.9602   30.0354 C.3     1  UNL1        0.2576
     15 C          19.5421   39.0933   31.5053 C.ar    1  UNL1        0.1441
     16 C          20.4536   39.4321   32.5315 C.ar    1  UNL1        0.0573
     17 C          19.6994   39.4199   33.6565 C.ar    1  UNL1        0.1546
     18 O          18.4556   39.0961   33.2761 O.2     1  UNL1       -0.3580
     19 N          18.3868   38.9246   32.0811 N.ar    1  UNL1       -0.0780
     20 C          20.1664   39.7130   35.0590 C.3     1  UNL1        0.0754
     21 O          27.6767   40.1145   26.9069 O.3     1  UNL1       -0.3379
     22 S          28.0732   40.9738   28.0990 S.O2    1  UNL1        0.1520
     23 O          29.4747   41.1858   27.9986 O.2     1  UNL1       -0.1313
     24 O          27.4721   40.3832   29.2431 O.2     1  UNL1       -0.1313
     25 C          24.8631   44.7737   29.7042 C.3     1  UNL1        0.0311
     26 C          25.8263   44.2560   28.6672 C.ar    1  UNL1       -0.0205
     27 C          26.1099   45.0150   27.5469 C.ar    1  UNL1       -0.0045
     28 C          26.9928   44.5399   26.5956 C.ar    1  UNL1       -0.0032
     29 C          27.5926   43.3057   26.7643 C.ar    1  UNL1       -0.0013
     30 C          27.3092   42.5469   27.8842 C.ar    1  UNL1        0.1405
     31 C          26.4219   43.0198   28.8332 C.ar    1  UNL1        0.0173
     32 C          28.5550   42.7876   25.7269 C.3     1  UNL1        0.0325
@<TRIPOS>BOND
     1    25    26    1
     2    26    31   ar
     3    26    27   ar
     4    27    28   ar
     5    28    29   ar
     6    29    30   ar
     7    29    32    1
     8    30    31   ar
     9    30    22    1
    10    22    23    2
    11    22    24    2
    12    22    21    1
    13    21     1    1
    14     1     6   ar
    15     1     2   ar
    16     2     3   ar
    17     3     4   ar
    18     4     5   ar
    19     4     9    1
    20     5     6   ar
    21     6     7    1
    22     7     8    1
    23     9    10    2
    24    10    11    1
    25    11    12    2
    26    11    13    1
    27    13    14    1
    28    14    15    1
    29    15    19   ar
    30    15    16   ar
    31    16    17   ar
    32    17    18   ar
    33    17    20    1
    34    18    19   ar
@<TRIPOS>MOLECULE
ZINC27674192
 31 34 0 0 0
SMALL
GASTEIGER

@<TRIPOS>ATOM
      1 C          25.8221   37.7424   28.5616 C.ar    1  UNL1        0.0593
      2 C          26.2811   36.5072   29.1688 C.ar    1  UNL1        0.0113
      3 C          26.7956   35.5702   28.3324 C.ar    1  UNL1        0.0338
      4 S          26.6678   36.3364   26.7302 S.2     1  UNL1       -0.1111
      5 C          25.9485   37.8446   27.1821 C.ar    1  UNL1       -0.0850
      6 C          26.1922   36.2797   30.6309 C.ar    1  UNL1        0.0007
      7 C          27.2718   36.5942   31.4550 C.ar    1  UNL1        0.0000
      8 C          27.1807   36.3864   32.8162 C.ar    1  UNL1        0.0000
      9 C          26.0259   35.8551   33.3617 C.ar    1  UNL1        0.0000
     10 C          24.9536   35.5353   32.5482 C.ar    1  UNL1        0.0000
     11 C          25.0306   35.7449   31.1864 C.ar    1  UNL1        0.0000
     12 C          25.2489   38.8240   29.3618 C.2     1  UNL1        0.3403
     13 O          25.9363   39.7766   29.6783 O.2     1  UNL1       -0.2449
     14 O          23.9579   38.7655   29.7490 O.3     1  UNL1       -0.4370
     15 C          22.9815   39.2558   28.8280 C.3     1  UNL1        0.2752
     16 N          20.6970   38.3760   29.5435 N.ar    1  UNL1       -0.2138
     17 C          21.8091   38.3099   28.7880 C.ar    1  UNL1        0.2053
     18 N          21.6745   37.2627   28.0113 N.ar    1  UNL1       -0.1088
     19 N          20.5391   36.7142   28.2759 N.ar    1  UNL1       -0.0229
     20 N          19.9484   37.3811   29.2052 N.ar    1  UNL1       -0.0431
     21 C          20.3962   39.3843   30.5627 C.3     1  UNL1        0.1307
     22 C          18.3439   39.0835   31.9555 C.3     1  UNL1        0.0021
     23 C          19.8169   38.6995   31.8022 C.3     1  UNL1        0.0265
     24 N          25.5875   38.9013   26.3641 N.am    1  UNL1       -0.6050
     25 C          24.5516   38.7706   25.5120 C.2     1  UNL1        0.0877
     26 O          23.7846   37.8325   25.6258 O.2     1  UNL1       -0.3124
     27 C          24.3486   39.7580   24.4487 C.ar    1  UNL1        0.0450
     28 C          23.5343   39.6817   23.3291 C.ar    1  UNL1        0.0083
     29 C          23.5315   40.7629   22.4835 C.ar    1  UNL1        0.0075
     30 C          24.3113   41.8366   22.7769 C.ar    1  UNL1        0.0355
     31 S          25.0787   41.3750   24.2613 S.2     1  UNL1       -0.0852
@<TRIPOS>UNITY_ATOM_ATTR
24 1
charge -1
@<TRIPOS>BOND
     1    22    23    1
     2    23    21    1
     3    21    16    1
     4    16    20   ar
     5    16    17   ar
     6    17    18   ar
     7    17    15    1
     8    18    19   ar
     9    19    20   ar
    10    15    14    1
    11    14    12    1
    12    12    13    2
    13    12     1    1
    14     1     5   ar
    15     1     2   ar
    16     2     3   ar
    17     2     6    1
    18     3     4   ar
    19     4     5   ar
    20     5    24    1
    21    24    25    1
    22    25    26    2
    23    25    27    1
    24    27    31   ar
    25    27    28   ar
    26    28    29   ar
    27    29    30   ar
    28    30    31   ar
    29     6    11   ar
    30     6     7   ar
    31     7     8   ar
    32     8     9   ar
    33     9    10   ar
    34    10    11   ar
@<TRIPOS>MOLECULE
ZINC12766414
 33 35 0 0 0
SMALL
GASTEIGER

@<TRIPOS>ATOM
      1 C          24.3278   37.0423   30.4204 C.ar    1  UNL1        0.1984
      2 N          23.0808   37.3065   30.0724 N.ar    1  UNL1       -0.1904
      3 C          22.7436   38.4255   29.4558 C.ar    1  UNL1        0.2324
      4 C          23.7484   39.3855   29.1631 C.ar    1  UNL1        0.0736
      5 C          23.6374   40.6771   28.5078 C.ar    1  UNL1       -0.0133
      6 C          24.7395   41.4221   28.3378 C.ar    1  UNL1        0.0053
      7 S          26.0312   40.4265   29.0582 S.2     1  UNL1       -0.0725
      8 C          25.0562   39.0362   29.5684 C.ar    1  UNL1        0.1161
      9 N          25.3050   37.8934   30.1756 N.ar    1  UNL1       -0.2186
     10 C          24.8580   42.7781   27.6910 C.3     1  UNL1        0.0379
     11 C          22.2994   41.1739   28.0241 C.3     1  UNL1        0.0314
     12 C          24.6393   35.7423   31.1162 C.3     1  UNL1        0.1721
     13 N          26.1013   35.5272   31.0925 N.4     1  UNL1        0.2817
     14 H          26.5521   36.3569   30.7067 H       1  UNL1        0.2072
     15 C          25.4455   35.3264   33.4677 C.3     1  UNL1        0.0670
     16 C          26.6013   35.3039   32.4654 C.3     1  UNL1        0.1060
     17 C          26.4270   34.3639   30.2408 C.3     1  UNL1        0.1060
     18 C          27.0355   34.8686   28.9309 C.3     1  UNL1        0.0670
     19 O          21.4541   38.6567   29.1118 O.3     1  UNL1       -0.4360
     20 C          20.5448   38.8091   30.1105 C.ar    1  UNL1        0.1476
     21 C          19.1935   38.6574   29.8436 C.ar    1  UNL1        0.0440
     22 C          18.2558   38.8132   30.8670 C.ar    1  UNL1        0.0789
     23 C          18.6808   39.1215   32.1578 C.ar    1  UNL1        0.0131
     24 C          20.0408   39.2732   32.4219 C.ar    1  UNL1        0.0789
     25 C          20.9714   39.1213   31.3915 C.ar    1  UNL1        0.0440
     26 C          20.4970   39.6000   33.7887 C.2     1  UNL1        0.3414
     27 O          21.6850   39.6490   34.0371 O.2     1  UNL1       -0.2449
     28 O          19.5953   39.8436   34.7594 O.3     1  UNL1       -0.4413
     29 C          19.6326   41.1561   35.3794 C.3     1  UNL1        0.2560
     30 C          16.8151   38.6517   30.5811 C.2     1  UNL1        0.3414
     31 O          15.9910   38.9770   31.4120 O.2     1  UNL1       -0.2449
     32 O          16.4158   38.1437   29.3992 O.3     1  UNL1       -0.4413
     33 C          14.9857   37.9986   29.1935 C.3     1  UNL1        0.2560
@<TRIPOS>UNITY_ATOM_ATTR
13 1
charge 1
@<TRIPOS>BOND
     1    15    16    1
     2    16    13    1
     3    17    18    1
     4    17    13    1
     5    12     1    1
     6    12    13    1
     7     1     9   ar
     8     1     2   ar
     9     2     3   ar
    10     3     4   ar
    11     3    19    1
    12     4     8   ar
    13     4     5   ar
    14     5     6   ar
    15     5    11    1
    16     6     7   ar
    17     6    10    1
    18     7     8   ar
    19     8     9   ar
    20    19    20    1
    21    20    25   ar
    22    20    21   ar
    23    21    22   ar
    24    22    23   ar
    25    22    30    1
    26    23    24   ar
    27    24    25   ar
    28    24    26    1
    29    26    27    2
    30    26    28    1
    31    28    29    1
    32    30    31    2
    33    30    32    1
    34    32    33    1
    35    13    14    1
@<TRIPOS>MOLECULE
ZINC27533052
 32 34 0 0 0
SMALL
GASTEIGER

@<TRIPOS>ATOM
      1 C          23.4378   41.3889   28.0641 C.ar    1  UNL1        0.1650
      2 N          22.3177   41.2679   28.7197 N.ar    1  UNL1       -0.1452
      3 N          21.7102   40.0686   28.3236 N.ar    1  UNL1       -0.1773
      4 C          22.5196   39.4839   27.4167 C.ar    1  UNL1        0.1850
      5 S          22.2396   37.9917   26.6256 S.2     1  UNL1       -0.0110
      6 N          23.5891   40.2864   27.2465 N.ar    1  UNL1       -0.2887
      7 C          24.3773   46.2867   27.8761 C.3     1  UNL1        0.0310
      8 C          24.8468   44.8711   28.0917 C.ar    1  UNL1       -0.0218
      9 C          26.1714   44.6234   28.4059 C.ar    1  UNL1       -0.0043
     10 C          26.6101   43.3269   28.6059 C.ar    1  UNL1       -0.0002
     11 C          25.7279   42.2717   28.4929 C.ar    1  UNL1        0.0030
     12 C          24.3903   42.5153   28.1813 C.ar    1  UNL1        0.0356
     13 C          23.9551   43.8250   27.9760 C.ar    1  UNL1       -0.0012
     14 C          24.7182   40.0327   26.3481 C.3     1  UNL1        0.1414
     15 C          24.4292   40.6506   24.9787 C.3     1  UNL1        0.1668
     16 O          24.8685   39.7593   23.9516 O.3     1  UNL1       -0.3490
     17 C          25.6707   40.3816   22.9460 C.3     1  UNL1        0.1742
     18 C          20.4322   39.5431   28.8099 C.3     1  UNL1        0.2437
     19 N          20.5624   39.1708   30.2250 N.4     1  UNL1        0.3031
     20 C          21.8026   38.4193   30.4596 C.3     1  UNL1        0.1698
     21 H          20.6086   40.0303   30.7723 H       1  UNL1        0.2096
     22 C          19.3913   38.4090   30.6789 C.3     1  UNL1        0.1361
     23 C          18.7659   39.1054   31.8600 C.ar    1  UNL1        0.0449
     24 C          19.5631   39.5777   32.8857 C.ar    1  UNL1        0.0263
     25 C          18.9901   40.2212   33.9665 C.ar    1  UNL1        0.1428
     26 C          17.6184   40.3835   34.0273 C.ar    1  UNL1        0.0249
     27 C          16.8199   39.9069   33.0052 C.ar    1  UNL1        0.0130
     28 C          17.3934   39.2672   31.9205 C.ar    1  UNL1        0.0593
     29 CL         16.3910   38.6685   30.6358 Cl      1  UNL1       -0.0824
     30 N          19.8447   40.7312   35.0621 N.pl3   1  UNL1        0.0577
     31 O          19.3912   41.5206   35.8711 O.2     1  UNL1       -0.1261
     32 O          21.0015   40.3614   35.1545 O.2     1  UNL1       -0.1261
@<TRIPOS>UNITY_ATOM_ATTR
19 1
charge 1
@<TRIPOS>BOND
     1     7     8    1
     2     8    13   ar
     3     8     9   ar
     4     9    10   ar
     5    10    11   ar
     6    11    12   ar
     7    12    13   ar
     8    12     1    1
     9     1     6   ar
    10     1     2   ar
    11     2     3   ar
    12     3     4   ar
    13     3    18    1
    14     4     5    2
    15     4     6   ar
    16     6    14    1
    17    14    15    1
    18    15    16    1
    19    16    17    1
    20    18    19    1
    21    19    20    1
    22    19    22    1
    23    22    23    1
    24    23    28   ar
    25    23    24   ar
    26    24    25   ar
    27    25    26   ar
    28    25    30    1
    29    26    27   ar
    30    27    28   ar
    31    28    29    1
    32    30    31    2
    33    30    32    2
    34    19    21    1
@<TRIPOS>MOLECULE
ZINC02224938
 33 36 0 0 0
SMALL
GASTEIGER

@<TRIPOS>ATOM
      1 C          13.5634   38.2016   30.0509 C.1     1  UNL1       -0.0429
      2 C          13.4159   37.6972   29.0011 C.1     1  UNL1       -0.0750
      3 C          13.7484   38.8341   31.3671 C.3     1  UNL1        0.2842
      4 O          14.3942   40.1235   31.1979 O.3     1  UNL1       -0.4335
      5 C          15.3336   40.4572   32.0968 C.2     1  UNL1        0.3224
      6 O          15.6209   41.6183   32.2676 O.2     1  UNL1       -0.2497
      7 C          16.0344   39.3833   32.8883 C.3     1  UNL1        0.1359
      8 C          20.7275   40.2941   34.7177 C.ar    1  UNL1       -0.0000
      9 C          19.4342   40.4565   35.2111 C.ar    1  UNL1       -0.0000
     10 C          18.3504   40.1124   34.4633 C.ar    1  UNL1       -0.0003
     11 C          18.5345   39.5886   33.1721 C.ar    1  UNL1       -0.0034
     12 C          19.8500   39.4194   32.6720 C.ar    1  UNL1       -0.0003
     13 C          20.9444   39.7866   33.4737 C.ar    1  UNL1       -0.0000
     14 C          20.0342   38.8919   31.3829 C.ar    1  UNL1       -0.0000
     15 C          18.9504   38.5468   30.6352 C.ar    1  UNL1       -0.0003
     16 C          17.6574   38.7085   31.1287 C.ar    1  UNL1       -0.0037
     17 C          17.4405   39.2161   32.3731 C.ar    1  UNL1       -0.0111
     18 C          13.2308   37.0648   27.6847 C.3     1  UNL1        0.1423
     19 S          11.5025   36.5619   27.4946 S.3     1  UNL1       -0.0409
     20 C          11.1707   37.2077   25.8892 C.ar    1  UNL1        0.2792
     21 N          10.7955   36.5183   24.8364 N.ar    1  UNL1       -0.1006
     22 N          10.6438   37.3130   23.8361 N.ar    1  UNL1       -0.1065
     23 C          10.9157   38.5397   24.2090 C.ar    1  UNL1        0.2504
     24 O          11.2498   38.4998   25.5180 O.2     1  UNL1       -0.4109
     25 C          10.8612   39.7453   23.3566 C.ar    1  UNL1        0.0553
     26 C          11.0384   39.6365   21.9760 C.ar    1  UNL1        0.0064
     27 C          10.9815   40.7656   21.1855 C.ar    1  UNL1        0.0242
     28 C          10.7601   42.0051   21.7590 C.ar    1  UNL1        0.1429
     29 C          10.5889   42.1207   23.1272 C.ar    1  UNL1        0.0242
     30 C          10.6381   40.9991   23.9288 C.ar    1  UNL1        0.0064
     31 N          10.7064   43.2135   20.9049 N.pl3   1  UNL1        0.0577
     32 O          11.2952   43.2325   19.8389 O.2     1  UNL1       -0.1261
     33 O          10.0734   44.1885   21.2685 O.2     1  UNL1       -0.1261
@<TRIPOS>BOND
     1     8    13   ar
     2     8     9   ar
     3     9    10   ar
     4    10    11   ar
     5    11    17   ar
     6    11    12   ar
     7    12    13   ar
     8    12    14   ar
     9    14    15   ar
    10    15    16   ar
    11    16    17   ar
    12    17     7    1
    13     7     5    1
    14     5     6    2
    15     5     4    1
    16     4     3    1
    17     3     1    1
    18     1     2    3
    19     2    18    1
    20    18    19    1
    21    19    20    1
    22    20    24   ar
    23    20    21   ar
    24    21    22   ar
    25    22    23   ar
    26    23    24   ar
    27    23    25    1
    28    25    30   ar
    29    25    26   ar
    30    26    27   ar
    31    27    28   ar
    32    28    29   ar
    33    28    31    1
    34    29    30   ar
    35    31    32    2
    36    31    33    2
@<TRIPOS>MOLECULE
ZINC25317561
 31 33 0 0 0
SMALL
GASTEIGER

@<TRIPOS>ATOM
      1 C          12.9777   37.4690   27.8019 C.ar    1  UNL1        0.1108
      2 N          12.4954   38.4060   26.9942 N.ar    1  UNL1       -0.2383
      3 C          11.5114   38.1453   26.1563 C.ar    1  UNL1        0.0883
      4 C          10.9826   36.8805   26.1100 C.ar    1  UNL1        0.0560
      5 S          11.9728   36.0606   27.3530 S.2     1  UNL1       -0.0659
      6 C          10.9847   39.2094   25.2666 C.ar    1  UNL1        0.0181
      7 C          10.2884   40.2898   25.8063 C.ar    1  UNL1        0.0046
      8 C           9.8001   41.2773   24.9768 C.ar    1  UNL1        0.0366
      9 C          10.0009   41.1961   23.6055 C.ar    1  UNL1        0.1351
     10 C          10.6937   40.1217   23.0651 C.ar    1  UNL1        0.0174
     11 C          11.1805   39.1283   23.8892 C.ar    1  UNL1        0.0006
     12 O           9.5176   42.1704   22.7904 O.3     1  UNL1       -0.4717
     13 C           8.5387   43.0524   23.3435 C.3     1  UNL1        0.2525
     14 C          10.9090   40.0371   21.5760 C.3     1  UNL1        0.0710
     15 C          11.9690   41.0263   21.1647 C.2     1  UNL1        0.0548
     16 O          11.8686   41.6183   20.1163 O.co2   1  UNL1       -0.5488
     17 O          13.0247   41.2496   21.9632 O.co2   1  UNL1       -0.5488
     18 C          14.3155   38.7412   29.3922 C.2     1  UNL1        0.0022
     19 C          14.0526   37.5633   28.7942 C.2     1  UNL1        0.0258
     20 C          17.6863   38.4608   31.0198 C.ar    1  UNL1        0.1731
     21 C          16.6751   38.3646   30.0823 C.ar    1  UNL1        0.0401
     22 C          15.3948   38.8359   30.3888 C.ar    1  UNL1        0.0041
     23 C          15.1410   39.3922   31.6464 C.ar    1  UNL1        0.0147
     24 C          16.1545   39.4796   32.5783 C.ar    1  UNL1        0.0946
     25 C          17.4268   39.0164   32.2705 C.ar    1  UNL1        0.1828
     26 CL         15.8384   40.1708   34.1391 Cl      1  UNL1       -0.0790
     27 O          18.4220   39.1051   33.1926 O.3     1  UNL1       -0.4675
     28 C          19.1400   40.3390   33.2555 C.3     1  UNL1        0.2527
     29 O          18.9337   38.0076   30.7229 O.3     1  UNL1       -0.4724
     30 C          20.7528   37.9223   29.1342 C.3     1  UNL1        0.0512
     31 C          19.7202   38.8061   29.8366 C.3     1  UNL1        0.2057
@<TRIPOS>UNITY_ATOM_ATTR
17 1
charge -1
@<TRIPOS>BOND
     1    30    31    1
     2    31    29    1
     3    29    20    1
     4    20    25   ar
     5    20    21   ar
     6    21    22   ar
     7    22    23   ar
     8    22    18    1
     9    23    24   ar
    10    24    25   ar
    11    24    26    1
    12    25    27    1
    13    27    28    1
    14    18    19    2
    15    19     1    1
    16     1     5   ar
    17     1     2   ar
    18     2     3   ar
    19     3     4   ar
    20     3     6    1
    21     4     5   ar
    22     6    11   ar
    23     6     7   ar
    24     7     8   ar
    25     8     9   ar
    26     9    10   ar
    27     9    12    1
    28    10    11   ar
    29    10    14    1
    30    14    15    1
    31    15    16   ar
    32    15    17   ar
    33    12    13    1
@<TRIPOS>MOLECULE
ZINC10385192
 34 36 0 0 0
SMALL
GASTEIGER

@<TRIPOS>ATOM
      1 C          19.4876   38.8789   29.1561 C.2     1  UNL1        0.0820
      2 C          19.2956   38.6878   30.4821 C.2     1  UNL1        0.0098
      3 C          17.9594   38.8577   31.0614 C.ar    1  UNL1        0.0392
      4 C          16.7494   38.5940   30.4461 C.ar    1  UNL1        0.1019
      5 N          15.7699   38.8892   31.3193 N.ar    1  UNL1       -0.2282
      6 N          16.3273   39.3493   32.5154 N.ar    1  UNL1       -0.1645
      7 C          17.6391   39.3483   32.4089 C.ar    1  UNL1        0.1087
      8 C          14.3987   38.7558   31.0678 C.ar    1  UNL1        0.0828
      9 C          13.4751   39.3720   31.9019 C.ar    1  UNL1        0.0191
     10 C          12.1236   39.2435   31.6475 C.ar    1  UNL1        0.0015
     11 C          11.6896   38.4921   30.5708 C.ar    1  UNL1        0.0001
     12 C          12.6067   37.8726   29.7417 C.ar    1  UNL1        0.0015
     13 C          13.9596   38.0022   29.9870 C.ar    1  UNL1        0.0191
     14 C          18.6050   39.7613   33.4458 C.ar    1  UNL1        0.0488
     15 C          19.6174   39.0379   34.0201 C.ar    1  UNL1        0.0086
     16 C          20.4023   39.6426   34.9767 C.ar    1  UNL1        0.0075
     17 C          20.1441   40.9287   35.3286 C.ar    1  UNL1        0.0355
     18 S          18.7534   41.3308   34.2839 S.2     1  UNL1       -0.0849
     19 C          20.7768   38.7149   28.5972 C.2     1  UNL1        0.3418
     20 O          20.9317   38.0007   27.6243 O.2     1  UNL1       -0.2449
     21 O          21.8348   39.3506   29.1432 O.3     1  UNL1       -0.4397
     22 C          23.1322   38.8472   28.8187 C.3     1  UNL1        0.2444
     23 C          23.7100   38.1090   30.0279 C.3     1  UNL1        0.0575
     24 N          23.5549   41.2515   28.4197 N.am    1  UNL1       -0.2929
     25 C          24.0381   39.9937   28.4502 C.2     1  UNL1        0.2634
     26 O          25.2021   39.7846   28.1811 O.2     1  UNL1       -0.2712
     27 H          22.6101   41.4213   28.6382 H       1  UNL1        0.1504
     28 C          24.4356   42.3661   28.0614 C.3     1  UNL1        0.1363
     29 C          25.7378   42.2634   28.8581 C.3     1  UNL1        0.0353
     30 C          22.3504   43.4089   28.9597 C.3     1  UNL1        0.0027
     31 C          23.7413   43.6898   28.3876 C.3     1  UNL1        0.0301
     32 C          24.5701   44.4602   29.4174 C.3     1  UNL1        0.0027
     33 C          24.7357   42.3111   26.6214 C.1     1  UNL1        0.0896
     34 N          24.9674   42.2688   25.5101 N.1     1  UNL1       -0.1943
@<TRIPOS>BOND
     1    30    31    1
     2    31    32    1
     3    31    28    1
     4    28    29    1
     5    28    33    1
     6    28    24    1
     7    33    34    3
     8    24    25   am
     9    25    26    2
    10    25    22    1
    11    22    23    1
    12    22    21    1
    13    21    19    1
    14    19    20    2
    15    19     1    1
    16     1     2    2
    17     2     3    1
    18     3     7   ar
    19     3     4   ar
    20     4     5   ar
    21     5     6   ar
    22     5     8    1
    23     6     7   ar
    24     7    14    1
    25    14    18   ar
    26    14    15   ar
    27    15    16   ar
    28    16    17   ar
    29    17    18   ar
    30     8    13   ar
    31     8     9   ar
    32     9    10   ar
    33    10    11   ar
    34    11    12   ar
    35    12    13   ar
    36    24    27    1
@<TRIPOS>MOLECULE
ZINC10580120
 33 36 0 0 0
SMALL
GASTEIGER

@<TRIPOS>ATOM
      1 N          25.4772   38.6636   28.5260 N.am    1  UNL1       -0.2351
      2 C          26.3930   39.6521   28.5045 C.2     1  UNL1        0.2543
      3 O          27.5437   39.4226   28.8271 O.2     1  UNL1       -0.2695
      4 C          25.9080   34.7680   31.4914 C.ar    1  UNL1       -0.0040
      5 C          26.3974   33.4903   31.5735 C.ar    1  UNL1       -0.0027
      6 C          27.0563   32.8966   30.5070 C.ar    1  UNL1        0.0003
      7 C          27.2201   33.6071   29.3316 C.ar    1  UNL1        0.0081
      8 C          26.7377   34.8884   29.2419 C.ar    1  UNL1        0.0494
      9 C          26.0615   35.5257   30.3077 C.ar    1  UNL1        0.0853
     10 N          25.6422   36.7861   30.0640 N.ar    1  UNL1       -0.2240
     11 C          25.8455   37.3876   28.9148 C.ar    1  UNL1        0.1690
     12 S          26.7196   36.1396   27.9807 S.2     1  UNL1       -0.0512
     13 C          26.0773   35.2344   33.9210 C.3     1  UNL1        0.0051
     14 C          25.1988   35.3719   32.6760 C.3     1  UNL1        0.0279
     15 C          26.0035   41.0015   28.0933 C.2     1  UNL1        0.0583
     16 C          26.0518   42.0168   28.9796 C.2     1  UNL1        0.0047
     17 C          25.6602   43.3740   28.5660 C.ar    1  UNL1        0.0002
     18 C          24.4543   43.9241   29.0120 C.ar    1  UNL1        0.0017
     19 C          24.0972   45.1985   28.6249 C.ar    1  UNL1        0.0241
     20 C          24.9235   45.9286   27.7883 C.ar    1  UNL1        0.1429
     21 C          26.1156   45.3887   27.3378 C.ar    1  UNL1        0.0241
     22 C          26.4894   44.1180   27.7206 C.ar    1  UNL1        0.0017
     23 N          24.5299   47.2937   27.3729 N.pl3   1  UNL1        0.0577
     24 O          24.5732   48.2102   28.1739 O.2     1  UNL1       -0.1261
     25 O          24.1629   47.5005   26.2301 O.2     1  UNL1       -0.1261
     26 C          24.0918   38.9397   28.1377 C.3     1  UNL1        0.1024
     27 C          23.6242   37.8854   27.1324 C.3     1  UNL1        0.0465
     28 C          22.2118   38.2278   26.6540 C.3     1  UNL1        0.1094
     29 N          21.2959   38.2292   27.7973 N.ar    1  UNL1       -0.3078
     30 C          20.6547   39.3183   28.3232 C.ar    1  UNL1        0.0980
     31 C          19.9134   38.8731   29.3555 C.ar    1  UNL1        0.1193
     32 N          20.1043   37.5499   29.4632 N.ar    1  UNL1       -0.2223
     33 C          20.9312   37.1571   28.5331 C.ar    1  UNL1        0.1786
@<TRIPOS>BOND
     1    13    14    1
     2    14     4    1
     3     4     9   ar
     4     4     5   ar
     5     5     6   ar
     6     6     7   ar
     7     7     8   ar
     8     8    12   ar
     9     8     9   ar
    10     9    10   ar
    11    10    11   ar
    12    11    12   ar
    13    11     1    1
    14     1    26    1
    15     1     2   am
    16    26    27    1
    17    27    28    1
    18    28    29    1
    19    29    33   ar
    20    29    30   ar
    21    30    31   ar
    22    31    32   ar
    23    32    33   ar
    24     2     3    2
    25     2    15    1
    26    15    16    2
    27    16    17    1
    28    17    22   ar
    29    17    18   ar
    30    18    19   ar
    31    19    20   ar
    32    20    21   ar
    33    20    23    1
    34    21    22   ar
    35    23    24    2
    36    23    25    2
@<TRIPOS>MOLECULE
ZINC29737757
 32 35 0 0 0
SMALL
GASTEIGER

@<TRIPOS>ATOM
      1 N          18.6679   39.4326   32.0646 N.ar    1  UNL1       -0.2757
      2 C          17.4249   39.6970   32.5289 C.ar    1  UNL1        0.2637
      3 O          17.2565   40.2853   33.5808 O.2     1  UNL1       -0.2669
      4 C          16.2840   39.2476   31.7152 C.ar    1  UNL1        0.0739
      5 C          14.9667   39.4747   32.1129 C.ar    1  UNL1        0.0065
      6 C          13.9355   39.0410   31.3303 C.ar    1  UNL1        0.0067
      7 C          14.1871   38.3688   30.1271 C.ar    1  UNL1        0.0771
      8 C          15.4913   38.1320   29.7117 C.ar    1  UNL1        0.0258
      9 C          16.5552   38.5708   30.5048 C.ar    1  UNL1        0.0882
     10 N          17.8421   38.3664   30.1373 N.ar    1  UNL1       -0.2224
     11 C          18.8408   38.7722   30.8819 C.ar    1  UNL1        0.1739
     12 C          13.0554   37.9075   29.2931 C.2     1  UNL1        0.3414
     13 O          11.9271   37.9159   29.7421 O.2     1  UNL1       -0.2449
     14 O          13.2766   37.4781   28.0359 O.3     1  UNL1       -0.4413
     15 C          12.1440   36.9150   27.3227 C.3     1  UNL1        0.2560
     16 C          19.8378   39.8586   32.8367 C.3     1  UNL1        0.1110
     17 C          20.1345   38.8248   33.9250 C.3     1  UNL1        0.0247
     18 C          20.2451   41.0226   35.1081 C.3     1  UNL1        0.0001
     19 C          20.1267   39.5085   35.2937 C.3     1  UNL1        0.0020
     20 S          20.4837   38.4574   30.3281 S.3     1  UNL1       -0.0686
     21 C          20.4912   39.4267   28.7995 C.3     1  UNL1        0.1336
     22 C          21.0849   40.8096   29.0754 C.3     1  UNL1        0.0221
     23 C          21.3241   38.7206   27.7610 C.ar    1  UNL1        0.2467
     24 N          22.6253   38.7876   27.6314 N.ar    1  UNL1       -0.1874
     25 C          22.9259   38.0024   26.5701 C.ar    1  UNL1        0.2381
     26 N          21.7969   37.5100   26.1230 N.ar    1  UNL1       -0.0528
     27 O          20.8720   37.9133   26.7960 O.2     1  UNL1       -0.3360
     28 C          24.2732   37.7483   26.0202 C.ar    1  UNL1        0.1843
     29 C          25.1507   38.6937   25.5894 C.ar    1  UNL1        0.0440
     30 C          26.3011   38.0098   25.1514 C.ar    1  UNL1        0.0439
     31 C          26.0720   36.6939   25.3343 C.ar    1  UNL1        0.1798
     32 O          24.8485   36.5401   25.8638 O.2     1  UNL1       -0.4472
@<TRIPOS>BOND
     1    18    19    1
     2    19    17    1
     3    17    16    1
     4    16     1    1
     5     1    11   ar
     6     1     2   ar
     7     2     3    2
     8     2     4   ar
     9     4     9   ar
    10     4     5   ar
    11     5     6   ar
    12     6     7   ar
    13     7     8   ar
    14     7    12    1
    15     8     9   ar
    16     9    10   ar
    17    10    11   ar
    18    11    20    1
    19    20    21    1
    20    21    22    1
    21    21    23    1
    22    23    27   ar
    23    23    24   ar
    24    24    25   ar
    25    25    26   ar
    26    25    28    1
    27    26    27   ar
    28    28    32   ar
    29    28    29   ar
    30    29    30   ar
    31    30    31   ar
    32    31    32   ar
    33    12    13    2
    34    12    14    1
    35    14    15    1
@<TRIPOS>MOLECULE
ZINC22008380
 34 37 0 0 0
SMALL
GASTEIGER

@<TRIPOS>ATOM
      1 C          12.0484   37.6163   27.7964 C.3     1  UNL1        0.2300
      2 C          13.3641   36.8508   27.6412 C.3     1  UNL1        0.0560
      3 C          11.1181   37.2501   26.6688 C.2     1  UNL1        0.2139
      4 O          10.6452   36.1341   26.6105 O.2     1  UNL1       -0.2875
      5 C           9.7955   41.5959   24.3610 C.3     1  UNL1        0.0500
      6 C          10.1988   40.1708   24.6395 C.ar    1  UNL1        0.0377
      7 C          10.4179   39.6474   25.8574 C.ar    1  UNL1        0.0168
      8 C          10.7847   38.2412   25.6434 C.ar    1  UNL1        0.0511
      9 C          10.7565   38.0471   24.2753 C.ar    1  UNL1        0.0404
     10 N          10.3996   39.2064   23.6947 N.ar    1  UNL1       -0.3271
     11 C          11.0678   36.7584   23.5585 C.3     1  UNL1        0.0501
     12 C          10.2529   39.4077   22.2510 C.3     1  UNL1        0.1704
     13 C          11.1122   40.5665   21.8155 C.ar    1  UNL1        0.1458
     14 C          10.7250   41.5755   21.0145 C.ar    1  UNL1        0.0382
     15 C          11.8383   42.4352   20.8714 C.ar    1  UNL1        0.0435
     16 C          12.8417   41.8958   21.5867 C.ar    1  UNL1        0.1792
     17 O          12.3962   40.7641   22.1563 O.2     1  UNL1       -0.4527
     18 O          11.4423   37.2736   29.0444 O.3     1  UNL1       -0.4412
     19 C          11.6609   38.1090   30.0813 C.2     1  UNL1        0.3418
     20 O          10.7888   38.8795   30.4361 O.2     1  UNL1       -0.2449
     21 C          12.9060   38.0887   30.7569 C.2     1  UNL1        0.0835
     22 C          13.5093   39.2492   31.0962 C.2     1  UNL1        0.0292
     23 C          14.7979   39.2282   31.8024 C.ar    1  UNL1        0.1234
     24 C          16.0424   39.1613   31.2121 C.ar    1  UNL1        0.1179
     25 N          16.9458   39.1651   32.2145 N.ar    1  UNL1       -0.2257
     26 N          16.2235   39.2353   33.4136 N.ar    1  UNL1       -0.0635
     27 N          14.9674   39.2767   33.1360 N.ar    1  UNL1       -0.1287
     28 C          18.4030   39.1066   32.0759 C.3     1  UNL1        0.1556
     29 C          19.0486   39.6597   33.3202 C.ar    1  UNL1        0.0022
     30 C          19.5701   38.8000   34.2688 C.ar    1  UNL1       -0.0023
     31 C          20.1667   39.3075   35.4079 C.ar    1  UNL1       -0.0003
     32 C          20.2322   40.6743   35.6034 C.ar    1  UNL1       -0.0000
     33 C          19.7060   41.5339   34.6573 C.ar    1  UNL1       -0.0003
     34 C          19.1142   41.0266   33.5157 C.ar    1  UNL1       -0.0023
@<TRIPOS>BOND
     1     5     6    1
     2     6    10   ar
     3     6     7   ar
     4     7     8   ar
     5     8     9   ar
     6     8     3    1
     7     9    10   ar
     8     9    11    1
     9    10    12    1
    10    12    13    1
    11    13    17   ar
    12    13    14   ar
    13    14    15   ar
    14    15    16   ar
    15    16    17   ar
    16     3     4    2
    17     3     1    1
    18     1     2    1
    19     1    18    1
    20    18    19    1
    21    19    20    2
    22    19    21    1
    23    21    22    2
    24    22    23    1
    25    23    27   ar
    26    23    24   ar
    27    24    25   ar
    28    25    26   ar
    29    25    28    1
    30    26    27   ar
    31    28    29    1
    32    29    34   ar
    33    29    30   ar
    34    30    31   ar
    35    31    32   ar
    36    32    33   ar
    37    33    34   ar
@<TRIPOS>MOLECULE
ZINC21120759
 32 35 0 0 0
SMALL
GASTEIGER

@<TRIPOS>ATOM
      1 N          17.3030   39.2291   32.3796 N.ar    1  UNL1       -0.2757
      2 C          15.9580   39.1876   32.3629 C.ar    1  UNL1        0.2639
      3 O          15.3174   39.5145   33.3472 O.2     1  UNL1       -0.2669
      4 C          15.2904   38.7549   31.1736 C.ar    1  UNL1        0.0762
      5 C          13.8509   38.6341   30.9346 C.ar    1  UNL1       -0.0136
      6 C          13.4670   38.1997   29.7172 C.ar    1  UNL1        0.0049
      7 S          14.9764   37.9290   28.8279 S.2     1  UNL1       -0.0725
      8 C          16.1226   38.4016   30.0982 C.ar    1  UNL1        0.1168
      9 N          17.4464   38.4653   30.1790 N.ar    1  UNL1       -0.2158
     10 C          18.0361   38.8718   31.2851 C.ar    1  UNL1        0.1744
     11 C          12.0662   37.9927   29.2275 C.3     1  UNL1        0.0327
     12 C          11.1240   37.9936   30.4399 C.3     1  UNL1        0.0055
     13 C          11.4625   39.1973   31.3241 C.3     1  UNL1        0.0050
     14 C          12.8159   38.9794   32.0017 C.3     1  UNL1        0.0268
     15 C          17.9933   39.6719   33.5936 C.3     1  UNL1        0.1110
     16 C          17.9090   41.1958   33.7010 C.3     1  UNL1        0.0247
     17 C          19.2620   41.7509   34.1507 C.3     1  UNL1        0.0020
     18 C          20.9384   40.2091   35.1778 C.3     1  UNL1        0.0000
     19 C          19.6932   41.0573   35.4445 C.3     1  UNL1        0.0001
     20 S          19.7950   38.9498   31.3540 S.3     1  UNL1       -0.0674
     21 C          20.1725   39.0979   29.5901 C.3     1  UNL1        0.1498
     22 C          21.4430   38.3476   29.2834 C.2     1  UNL1        0.2345
     23 O          21.3924   37.1890   28.9285 O.2     1  UNL1       -0.2741
     24 N          22.6354   38.9642   29.4038 N.am    1  UNL1       -0.2951
     25 H          22.6763   39.9047   29.6918 H       1  UNL1        0.1503
     26 C          23.8705   38.2348   29.1058 C.3     1  UNL1        0.1363
     27 C          23.9172   37.8990   27.6138 C.3     1  UNL1        0.0353
     28 C          23.9081   36.9408   29.9212 C.3     1  UNL1        0.0301
     29 C          24.3198   37.0438   31.3912 C.3     1  UNL1        0.0027
     30 C          25.2780   36.4280   30.3697 C.3     1  UNL1        0.0027
     31 C          25.0305   39.0701   29.4573 C.1     1  UNL1        0.0896
     32 N          25.9257   39.7147   29.7284 N.1     1  UNL1       -0.1943
@<TRIPOS>BOND
     1    18    19    1
     2    19    17    1
     3    17    16    1
     4    16    15    1
     5    15     1    1
     6     1    10   ar
     7     1     2   ar
     8     2     3    2
     9     2     4   ar
    10     4     8   ar
    11     4     5   ar
    12     5    14    1
    13     5     6   ar
    14     6     7   ar
    15     6    11    1
    16     7     8   ar
    17     8     9   ar
    18     9    10   ar
    19    10    20    1
    20    20    21    1
    21    21    22    1
    22    22    23    2
    23    22    24   am
    24    24    26    1
    25    26    27    1
    26    26    31    1
    27    26    28    1
    28    31    32    3
    29    28    30    1
    30    28    29    1
    31    29    30    1
    32    11    12    1
    33    12    13    1
    34    13    14    1
    35    24    25    1
@<TRIPOS>MOLECULE
ZINC23873292
 33 36 0 0 0
SMALL
GASTEIGER

@<TRIPOS>ATOM
      1 N          25.6611   42.0049   27.5679 N.ar    1  UNL1       -0.2650
      2 C          25.2260   40.6944   27.6805 C.ar    1  UNL1        0.1693
      3 C          26.1153   39.7296   28.1367 C.ar    1  UNL1        0.1522
      4 C          27.4358   40.1093   28.4601 C.ar    1  UNL1        0.2799
      5 O          28.2353   39.2810   28.8577 O.2     1  UNL1       -0.2654
      6 N          27.8001   41.4021   28.3298 N.ar    1  UNL1       -0.2731
      7 C          26.9276   42.3263   27.8926 C.ar    1  UNL1        0.3316
      8 O          27.2912   43.4820   27.7881 O.2     1  UNL1       -0.2464
      9 N          25.4211   38.5363   28.1429 N.ar    1  UNL1       -0.3070
     10 C          24.1724   38.8052   27.7141 C.ar    1  UNL1        0.1668
     11 N          24.0639   40.0808   27.4429 N.ar    1  UNL1       -0.2097
     12 H          28.7187   41.6723   28.5584 H       1  UNL1        0.1735
     13 C          25.9414   37.2273   28.5453 C.3     1  UNL1        0.1076
     14 C          25.7235   37.0316   30.0470 C.3     1  UNL1        0.0265
     15 C          24.7415   43.0428   27.0951 C.3     1  UNL1        0.1120
     16 C          23.8390   43.4880   28.2476 C.3     1  UNL1        0.0247
     17 C          25.0021   44.7529   30.0614 C.3     1  UNL1        0.0001
     18 C          24.2685   44.8769   28.7245 C.3     1  UNL1        0.0020
     19 C          23.0675   37.7905   27.5695 C.3     1  UNL1        0.2719
     20 O          21.7857   38.4358   27.7903 O.3     1  UNL1       -0.4367
     21 C          20.8703   37.7505   28.5061 C.2     1  UNL1        0.3477
     22 O          20.4791   36.6673   28.1147 O.2     1  UNL1       -0.2443
     23 C          20.3479   38.3105   29.7536 C.ar    1  UNL1        0.1045
     24 C          19.0336   38.4687   30.1561 C.ar    1  UNL1        0.0089
     25 C          18.7936   39.0288   31.3997 C.ar    1  UNL1       -0.0195
     26 C          19.8880   39.3933   32.1320 C.ar    1  UNL1        0.0035
     27 S          21.2395   38.9747   31.1499 S.2     1  UNL1       -0.0852
     28 C          19.8963   40.0207   33.4919 C.3     1  UNL1        0.0326
     29 C          18.4830   40.5391   33.7944 C.3     1  UNL1        0.0055
     30 C          17.4730   39.4366   33.4643 C.3     1  UNL1        0.0047
     31 C          17.3861   39.2456   31.9497 C.3     1  UNL1        0.0266
     32 C          16.0977   39.8313   34.0062 C.3     1  UNL1        0.0003
     33 C          15.9148   41.3450   33.8795 C.3     1  UNL1        0.0000
@<TRIPOS>BOND
     1    17    18    1
     2    18    16    1
     3    16    15    1
     4    15     1    1
     5     1     7   ar
     6     1     2   ar
     7     2    11   ar
     8     2     3   ar
     9     3     4   ar
    10     3     9   ar
    11     4     5    2
    12     4     6   ar
    13     6     7   ar
    14     7     8    2
    15     9    10   ar
    16     9    13    1
    17    10    11   ar
    18    10    19    1
    19    19    20    1
    20    20    21    1
    21    21    22    2
    22    21    23    1
    23    23    27   ar
    24    23    24   ar
    25    24    25   ar
    26    25    31    1
    27    25    26   ar
    28    26    27   ar
    29    26    28    1
    30    28    29    1
    31    29    30    1
    32    30    31    1
    33    30    32    1
    34    32    33    1
    35    13    14    1
    36     6    12    1
@<TRIPOS>MOLECULE
ZINC21938943
 34 37 0 0 0
SMALL
GASTEIGER

@<TRIPOS>ATOM
      1 C          13.2445   37.8739   28.9504 C.ar    1  UNL1        0.0758
      2 C          14.3680   37.6836   28.1455 C.ar    1  UNL1        0.0066
      3 C          15.6319   37.9740   28.6304 C.ar    1  UNL1        0.0049
      4 C          15.7830   38.4559   29.9210 C.ar    1  UNL1        0.0587
      5 C          14.6513   38.6504   30.7397 C.ar    1  UNL1        0.0589
      6 C          13.3878   38.3651   30.2516 C.ar    1  UNL1        0.0111
      7 C          15.1664   39.1631   32.0268 C.2     1  UNL1        0.2589
      8 O          14.4923   39.4533   32.9946 O.2     1  UNL1       -0.2691
      9 N          16.5058   39.2552   31.9475 N.am    1  UNL1       -0.2014
     10 C          16.9482   38.8580   30.7409 C.2     1  UNL1        0.2589
     11 O          18.1086   38.8337   30.3840 O.2     1  UNL1       -0.2691
     12 C          17.3323   39.7062   32.9857 C.ar    1  UNL1        0.0569
     13 C          18.2514   38.8434   33.5680 C.ar    1  UNL1        0.0108
     14 C          19.0646   39.2908   34.5905 C.ar    1  UNL1       -0.0206
     15 C          18.9648   40.5968   35.0342 C.ar    1  UNL1       -0.0045
     16 C          18.0504   41.4581   34.4567 C.ar    1  UNL1       -0.0033
     17 C          17.2378   41.0179   33.4300 C.ar    1  UNL1       -0.0077
     18 C          16.2460   41.9592   32.7965 C.3     1  UNL1        0.0323
     19 C          20.0623   38.3550   35.2229 C.3     1  UNL1        0.0311
     20 C          11.8982   37.5610   28.4239 C.2     1  UNL1        0.3415
     21 O          10.9166   37.7561   29.1119 O.2     1  UNL1       -0.2449
     22 O          11.7608   37.0596   27.1814 O.3     1  UNL1       -0.4397
     23 C          10.8769   37.7729   26.2767 C.3     1  UNL1        0.2446
     24 C           9.9692   36.7735   25.5568 C.3     1  UNL1        0.0575
     25 N          11.1176   39.4652   24.4887 N.am    1  UNL1       -0.2766
     26 C          11.6981   38.5268   25.2626 C.2     1  UNL1        0.2660
     27 O          12.8812   38.2889   25.1427 O.2     1  UNL1       -0.2710
     28 C          11.8856   40.1134   23.4228 C.3     1  UNL1        0.0935
     29 C          11.7485   40.9356   21.0675 C.3     1  UNL1        0.0018
     30 C          11.1223   39.9981   22.1018 C.3     1  UNL1        0.0215
     31 C           9.7185   39.8371   24.7135 C.3     1  UNL1        0.0935
     32 C           9.6508   41.2702   25.2451 C.3     1  UNL1        0.0199
     33 C           9.3026   42.3777   24.2487 C.3     1  UNL1        0.0018
     34 C          10.7316   42.2481   24.7799 C.3     1  UNL1        0.0018
@<TRIPOS>BOND
     1    29    30    1
     2    30    28    1
     3    28    25    1
     4    25    31    1
     5    25    26   am
     6    31    32    1
     7    32    34    1
     8    32    33    1
     9    33    34    1
    10    26    27    2
    11    26    23    1
    12    23    24    1
    13    23    22    1
    14    22    20    1
    15    20    21    2
    16    20     1    1
    17     1     6   ar
    18     1     2   ar
    19     2     3   ar
    20     3     4   ar
    21     4    10    1
    22     4     5   ar
    23     5     6   ar
    24     5     7    1
    25     7     8    2
    26     7     9   am
    27     9    10   am
    28     9    12    1
    29    10    11    2
    30    12    17   ar
    31    12    13   ar
    32    13    14   ar
    33    14    15   ar
    34    14    19    1
    35    15    16   ar
    36    16    17   ar
    37    17    18    1
@<TRIPOS>MOLECULE
ZINC31584002
 34 37 0 0 0
SMALL
GASTEIGER

@<TRIPOS>ATOM
      1 C          21.2350   38.4186   27.4414 C.2     1  UNL1        0.2706
      2 O          20.5911   37.8129   26.6110 O.2     1  UNL1       -0.2708
      3 N          22.5815   38.4185   27.3816 N.am    1  UNL1       -0.2721
      4 C          20.5295   39.1713   28.5399 C.3     1  UNL1        0.2929
      5 O          19.6931   38.2551   29.2945 O.3     1  UNL1       -0.4365
      6 C          19.3493   38.6277   30.5422 C.2     1  UNL1        0.3192
      7 O          20.2109   38.8743   31.3612 O.2     1  UNL1       -0.2469
      8 C          11.4598   38.6250   31.2680 C.3     1  UNL1        0.0310
      9 C          12.9295   38.5410   30.9456 C.ar    1  UNL1       -0.0219
     10 C          13.3383   38.0096   29.7292 C.ar    1  UNL1       -0.0061
     11 C          14.6758   37.9233   29.4131 C.ar    1  UNL1       -0.0242
     12 C          15.6305   38.3736   30.3220 C.ar    1  UNL1       -0.1160
     13 C          15.2097   38.9111   31.5528 C.ar    1  UNL1        0.0164
     14 C          13.8485   38.9887   31.8521 C.ar    1  UNL1       -0.0029
     15 C          16.2311   39.3825   32.5023 C.ar    1  UNL1        0.1923
     16 O          15.9167   39.8558   33.5811 O.2     1  UNL1       -0.2867
     17 C          17.5955   39.2626   32.1238 C.ar    1  UNL1        0.0243
     18 C          17.9192   38.7368   30.9154 C.ar    1  UNL1       -0.0386
     19 N          16.9728   38.2999   30.0341 N.ar    1  UNL1       -0.6529
     20 C          23.2704   37.5980   26.3824 C.3     1  UNL1        0.0985
     21 C          24.2061   38.4812   25.5546 C.3     1  UNL1        0.0478
     22 C          25.6350   38.0737   25.8067 C.ar    1  UNL1       -0.0205
     23 C          26.6431   39.0179   25.7514 C.ar    1  UNL1       -0.0042
     24 C          27.9530   38.6449   25.9874 C.ar    1  UNL1       -0.0003
     25 C          28.2562   37.3259   26.2687 C.ar    1  UNL1       -0.0000
     26 C          27.2488   36.3806   26.3183 C.ar    1  UNL1       -0.0003
     27 C          25.9382   36.7546   26.0876 C.ar    1  UNL1       -0.0042
     28 C          23.3562   39.2390   28.3159 C.3     1  UNL1        0.1202
     29 C          24.1593   38.3437   29.2238 C.ar    1  UNL1       -0.0023
     30 C          25.5325   38.4855   29.2961 C.ar    1  UNL1       -0.0026
     31 C          26.2688   37.6675   30.1326 C.ar    1  UNL1       -0.0003
     32 C          25.6329   36.7010   30.8893 C.ar    1  UNL1       -0.0000
     33 C          24.2604   36.5555   30.8128 C.ar    1  UNL1       -0.0003
     34 C          23.5236   37.3770   29.9802 C.ar    1  UNL1       -0.0026
@<TRIPOS>UNITY_ATOM_ATTR
19 1
charge -1
@<TRIPOS>BOND
     1     8     9    1
     2     9    14   ar
     3     9    10   ar
     4    10    11   ar
     5    11    12   ar
     6    12    19   ar
     7    12    13   ar
     8    13    14   ar
     9    13    15   ar
    10    15    16    2
    11    15    17   ar
    12    17    18   ar
    13    18    19   ar
    14    18     6    1
    15     6     7    2
    16     6     5    1
    17     5     4    1
    18     4     1    1
    19     1     2    2
    20     1     3   am
    21     3    20    1
    22     3    28    1
    23    20    21    1
    24    21    22    1
    25    22    27   ar
    26    22    23   ar
    27    23    24   ar
    28    24    25   ar
    29    25    26   ar
    30    26    27   ar
    31    28    29    1
    32    29    34   ar
    33    29    30   ar
    34    30    31   ar
    35    31    32   ar
    36    32    33   ar
    37    33    34   ar
@<TRIPOS>MOLECULE
ZINC24046013
 31 33 0 0 0
SMALL
GASTEIGER

@<TRIPOS>ATOM
      1 N          24.0227   38.5239   27.8805 N.ar    1  UNL1       -0.3065
      2 C          24.6827   39.0232   26.7694 C.ar    1  UNL1        0.0793
      3 C          25.9499   39.5446   26.5581 C.ar    1  UNL1        0.0201
      4 C          26.3166   39.9688   25.2974 C.ar    1  UNL1        0.0215
      5 C          25.4274   39.8721   24.2373 C.ar    1  UNL1        0.1238
      6 C          24.1630   39.3623   24.4302 C.ar    1  UNL1        0.0405
      7 C          23.7762   38.9283   25.7007 C.ar    1  UNL1        0.1005
      8 N          22.6309   38.3886   26.1939 N.ar    1  UNL1       -0.2211
      9 C          22.7728   38.1500   27.4747 C.ar    1  UNL1        0.1717
     10 S          25.9171   40.4119   22.6331 S.O2    1  UNL1        0.0633
     11 O          26.4977   41.6985   22.7973 O.2     1  UNL1       -0.1528
     12 O          26.6193   39.3297   22.0372 O.2     1  UNL1       -0.1528
     13 N          24.5356   40.6258   21.7455 N.3     1  UNL1       -0.1555
     14 C          24.1777   39.6604   20.7034 C.3     1  UNL1        0.0958
     15 C          24.7471   40.1242   19.3612 C.3     1  UNL1        0.0206
     16 C          23.6713   41.7805   22.0024 C.3     1  UNL1        0.0958
     17 C          22.2803   41.5152   21.4231 C.3     1  UNL1        0.0206
     18 C          25.3626   37.1184   29.3672 C.3     1  UNL1        0.0265
     19 C          24.5641   38.4170   29.2376 C.3     1  UNL1        0.1080
     20 S          21.5363   37.4512   28.5176 S.3     1  UNL1       -0.0687
     21 C          20.5071   38.9116   28.8071 C.3     1  UNL1        0.1336
     22 C          21.3891   40.1618   28.8239 C.3     1  UNL1        0.0221
     23 C          19.8034   38.7755   30.1327 C.ar    1  UNL1        0.2464
     24 N          20.0007   39.5105   31.2006 N.ar    1  UNL1       -0.1942
     25 C          19.1578   39.0296   32.1318 C.ar    1  UNL1        0.1797
     26 N          18.5031   38.0451   31.5927 N.ar    1  UNL1       -0.0606
     27 O          18.8550   37.8865   30.4427 O.2     1  UNL1       -0.3365
     28 C          19.0010   39.5393   33.5413 C.3     1  UNL1        0.0557
     29 C          19.7156   40.8851   33.6794 C.3     1  UNL1        0.0077
     30 C          17.5144   39.7163   33.8572 C.3     1  UNL1        0.0077
     31 C          19.6137   38.5338   34.5184 C.3     1  UNL1        0.0077
@<TRIPOS>BOND
     1    18    19    1
     2    19     1    1
     3     1     9   ar
     4     1     2   ar
     5     2     7   ar
     6     2     3   ar
     7     3     4   ar
     8     4     5   ar
     9     5     6   ar
    10     5    10    1
    11     6     7   ar
    12     7     8   ar
    13     8     9   ar
    14     9    20    1
    15    20    21    1
    16    21    22    1
    17    21    23    1
    18    23    27   ar
    19    23    24   ar
    20    24    25   ar
    21    25    26   ar
    22    25    28    1
    23    26    27   ar
    24    28    29    1
    25    28    30    1
    26    28    31    1
    27    10    11    2
    28    10    12    2
    29    10    13    1
    30    13    14    1
    31    13    16    1
    32    14    15    1
    33    16    17    1
@<TRIPOS>MOLECULE
ZINC28063286
 34 37 0 0 0
SMALL
GASTEIGER

@<TRIPOS>ATOM
      1 C          21.6456   39.2414   28.6461 C.ar    1  UNL1        0.0593
      2 C          21.1654   40.4828   28.4156 C.ar    1  UNL1        0.0963
      3 N          22.1969   41.3505   28.4967 N.ar    1  UNL1       -0.2452
      4 N          23.3584   40.6216   28.7824 N.ar    1  UNL1       -0.1692
      5 C          23.0304   39.3505   28.8786 C.ar    1  UNL1        0.1020
      6 C          23.9572   38.2296   29.1747 C.ar    1  UNL1        0.0222
      7 C          24.9168   37.8502   28.2379 C.ar    1  UNL1        0.0017
      8 C          25.7807   36.8106   28.5175 C.ar    1  UNL1        0.0032
      9 C          25.6905   36.1366   29.7211 C.ar    1  UNL1        0.0369
     10 C          24.7342   36.5049   30.6572 C.ar    1  UNL1        0.1388
     11 C          23.8665   37.5506   30.3867 C.ar    1  UNL1        0.0384
     12 O          24.6485   35.8392   31.8390 O.3     1  UNL1       -0.4714
     13 C          25.5276   36.2581   32.8848 C.3     1  UNL1        0.2525
     14 C          20.8424   37.9663   28.6532 C.3     1  UNL1        0.2385
     15 O          20.3399   37.7182   29.9927 O.3     1  UNL1       -0.4392
     16 C          19.2582   38.4216   30.3801 C.2     1  UNL1        0.3612
     17 O          18.2856   38.4882   29.6555 O.2     1  UNL1       -0.2431
     18 N          18.0654   40.1304   33.3375 N.ar    1  UNL1       -0.2165
     19 C          19.1710   40.3776   34.0645 C.ar    1  UNL1        0.2765
     20 O          19.0849   40.9542   35.1359 O.2     1  UNL1       -0.2655
     21 C          20.4316   39.9650   33.5782 C.ar    1  UNL1        0.0640
     22 C          20.4739   39.3248   32.3755 C.ar    1  UNL1        0.0324
     23 C          19.2549   39.1118   31.6866 C.ar    1  UNL1        0.1764
     24 N          18.1213   39.5309   32.2035 N.ar    1  UNL1       -0.1602
     25 C          16.7634   40.5625   33.8514 C.3     1  UNL1        0.1307
     26 C          14.8763   39.3738   32.7253 C.3     1  UNL1        0.0021
     27 C          15.8209   39.3597   33.9289 C.3     1  UNL1        0.0265
     28 C          22.1162   42.8015   28.3118 C.3     1  UNL1        0.1538
     29 C          23.4994   43.3950   28.3861 C.ar    1  UNL1        0.0021
     30 C          23.8839   44.1144   29.5021 C.ar    1  UNL1       -0.0023
     31 C          25.1527   44.6588   29.5703 C.ar    1  UNL1       -0.0003
     32 C          26.0353   44.4883   28.5201 C.ar    1  UNL1       -0.0000
     33 C          25.6527   43.7644   27.4063 C.ar    1  UNL1       -0.0003
     34 C          24.3840   43.2196   27.3384 C.ar    1  UNL1       -0.0023
@<TRIPOS>BOND
     1    26    27    1
     2    27    25    1
     3    25    18    1
     4    18    24   ar
     5    18    19   ar
     6    19    20    2
     7    19    21   ar
     8    21    22   ar
     9    22    23   ar
    10    23    24   ar
    11    23    16    1
    12    16    17    2
    13    16    15    1
    14    15    14    1
    15    14     1    1
    16     1     5   ar
    17     1     2   ar
    18     2     3   ar
    19     3     4   ar
    20     3    28    1
    21     4     5   ar
    22     5     6    1
    23     6    11   ar
    24     6     7   ar
    25     7     8   ar
    26     8     9   ar
    27     9    10   ar
    28    10    11   ar
    29    10    12    1
    30    12    13    1
    31    28    29    1
    32    29    34   ar
    33    29    30   ar
    34    30    31   ar
    35    31    32   ar
    36    32    33   ar
    37    33    34   ar
@<TRIPOS>MOLECULE
ZINC15517856
 32 35 0 0 0
SMALL
GASTEIGER

@<TRIPOS>ATOM
      1 N          25.6711   38.7944   26.1095 N.am    1  UNL1       -0.2781
      2 C          25.9276   39.9997   25.5638 C.2     1  UNL1        0.2379
      3 O          25.0289   40.7994   25.4100 O.2     1  UNL1       -0.2738
      4 H          26.4007   38.1452   26.2344 H       1  UNL1        0.1553
      5 C          23.9175   38.1232   27.7604 C.ar    1  UNL1        0.0918
      6 C          22.5078   37.8337   27.8787 C.ar    1  UNL1       -0.0080
      7 C          21.7685   37.9119   26.7581 C.ar    1  UNL1        0.0326
      8 S          22.9539   38.3860   25.5167 S.2     1  UNL1       -0.0718
      9 C          24.3802   38.4688   26.4950 C.ar    1  UNL1        0.0867
     10 C          21.8923   37.4539   29.2008 C.3     1  UNL1        0.0231
     11 C          20.4622   37.9235   29.4753 C.3     1  UNL1        0.0047
     12 C          21.6358   38.5757   30.2090 C.3     1  UNL1        0.0047
     13 C          24.8145   38.0606   28.9161 C.2     1  UNL1        0.3426
     14 O          25.0003   39.0518   29.5962 O.2     1  UNL1       -0.2448
     15 O          25.4349   36.9038   29.2264 O.3     1  UNL1       -0.4454
     16 C          24.6205   36.0102   31.3404 C.3     1  UNL1        0.0513
     17 C          25.7835   36.6961   30.6206 C.3     1  UNL1        0.2089
     18 C          27.3313   40.3538   25.1447 C.3     1  UNL1        0.1502
     19 S          27.6916   42.0615   25.6247 S.3     1  UNL1       -0.0641
     20 C          28.0534   41.8292   27.3333 C.ar    1  UNL1        0.2151
     21 N          29.1349   41.2727   27.8354 N.ar    1  UNL1       -0.1011
     22 N          29.0779   41.2554   29.1181 N.ar    1  UNL1       -0.0218
     23 N          27.9805   41.7940   29.5267 N.ar    1  UNL1       -0.0382
     24 N          27.2707   42.1928   28.3805 N.ar    1  UNL1       -0.1862
     25 C          26.0202   42.8250   28.3300 C.ar    1  UNL1        0.0860
     26 C          24.8569   42.0751   28.4378 C.ar    1  UNL1        0.0150
     27 C          23.6265   42.7006   28.3874 C.ar    1  UNL1       -0.0207
     28 C          23.5527   44.0731   28.2353 C.ar    1  UNL1       -0.0084
     29 C          24.7096   44.8220   28.1218 C.ar    1  UNL1       -0.0207
     30 C          25.9429   44.2021   28.1717 C.ar    1  UNL1        0.0150
     31 C          24.6248   46.3168   27.9500 C.3     1  UNL1        0.0311
     32 C          22.3632   41.8872   28.5038 C.3     1  UNL1        0.0311
@<TRIPOS>BOND
     1    16    17    1
     2    17    15    1
     3    15    13    1
     4    13    14    2
     5    13     5    1
     6     5     9   ar
     7     5     6   ar
     8     6     7   ar
     9     6    10    1
    10     7     8   ar
    11     8     9   ar
    12     9     1    1
    13     1     2   am
    14     2     3    2
    15     2    18    1
    16    18    19    1
    17    19    20    1
    18    20    24   ar
    19    20    21   ar
    20    21    22   ar
    21    22    23   ar
    22    23    24   ar
    23    24    25    1
    24    25    30   ar
    25    25    26   ar
    26    26    27   ar
    27    27    28   ar
    28    27    32    1
    29    28    29   ar
    30    29    30   ar
    31    29    31    1
    32    10    12    1
    33    10    11    1
    34    11    12    1
    35     1     4    1
@<TRIPOS>MOLECULE
ZINC21329284
 34 36 0 0 0
SMALL
GASTEIGER

@<TRIPOS>ATOM
      1 C          11.0222   37.8482   25.8890 C.2     1  UNL1        0.3515
      2 O          11.0666   36.6816   25.5487 O.2     1  UNL1       -0.2441
      3 C          10.8763   40.2244   25.2377 C.2     1  UNL1        0.0180
      4 C          10.7430   38.8922   24.8959 C.2     1  UNL1        0.1439
      5 C           8.1040   43.6787   22.8093 C.3     1  UNL1        0.0500
      6 C           9.2235   42.7724   23.2526 C.ar    1  UNL1        0.0371
      7 C           9.1512   41.8795   24.2534 C.ar    1  UNL1        0.0139
      8 C          10.4693   41.2337   24.3287 C.ar    1  UNL1        0.0136
      9 C          11.2325   41.8148   23.3290 C.ar    1  UNL1        0.0371
     10 N          10.4702   42.7263   22.6978 N.ar    1  UNL1       -0.3340
     11 C          12.6663   41.4832   23.0046 C.3     1  UNL1        0.0500
     12 C          10.9170   43.5569   21.5768 C.3     1  UNL1        0.1054
     13 C          10.6796   42.8104   20.2625 C.3     1  UNL1        0.0226
     14 C          11.8038   43.1401   19.2784 C.3     1  UNL1        0.0020
     15 C          10.6601   41.3037   20.5282 C.3     1  UNL1        0.0020
     16 C          10.3326   38.5302   23.5726 C.1     1  UNL1        0.1070
     17 N          10.0071   38.2430   22.5227 N.1     1  UNL1       -0.1906
     18 O          11.2294   38.1826   27.1789 O.3     1  UNL1       -0.4346
     19 C          11.7856   37.1580   28.0443 C.3     1  UNL1        0.2957
     20 C          13.1536   37.5835   28.5117 C.ar    1  UNL1        0.2812
     21 N          13.4826   37.9469   29.7262 N.ar    1  UNL1       -0.1876
     22 C          14.8027   38.2362   29.6738 C.ar    1  UNL1        0.2035
     23 N          15.1920   38.0404   28.4405 N.ar    1  UNL1       -0.0559
     24 O          14.2581   37.6663   27.7632 O.2     1  UNL1       -0.3331
     25 C          15.6492   38.6947   30.8024 C.ar    1  UNL1        0.0423
     26 C          15.0572   39.2018   31.9577 C.ar    1  UNL1        0.0065
     27 C          15.8448   39.6232   33.0092 C.ar    1  UNL1        0.0401
     28 C          17.2269   39.5533   32.9152 C.ar    1  UNL1        0.1724
     29 C          17.8239   39.0528   31.7608 C.ar    1  UNL1        0.1725
     30 C          17.0380   38.6244   30.7065 C.ar    1  UNL1        0.0432
     31 O          19.1792   38.9850   31.6704 O.3     1  UNL1       -0.4684
     32 C          19.7224   38.4257   30.4728 C.3     1  UNL1        0.2526
     33 O          17.9996   39.9742   33.9512 O.3     1  UNL1       -0.4684
     34 C          17.8019   41.3145   34.4053 C.3     1  UNL1        0.2526
@<TRIPOS>BOND
     1     5     6    1
     2     6    10   ar
     3     6     7   ar
     4     7     8   ar
     5     8     9   ar
     6     8     3    1
     7     9    10   ar
     8     9    11    1
     9    10    12    1
    10    12    13    1
    11    13    14    1
    12    13    15    1
    13     3     4    2
    14     4    16    1
    15     4     1    1
    16    16    17    3
    17     1     2    2
    18     1    18    1
    19    18    19    1
    20    19    20    1
    21    20    24   ar
    22    20    21   ar
    23    21    22   ar
    24    22    23   ar
    25    22    25    1
    26    23    24   ar
    27    25    30   ar
    28    25    26   ar
    29    26    27   ar
    30    27    28   ar
    31    28    29   ar
    32    28    33    1
    33    29    30   ar
    34    29    31    1
    35    31    32    1
    36    33    34    1
@<TRIPOS>MOLECULE
ZINC09751113
 32 34 0 0 0
SMALL
GASTEIGER

@<TRIPOS>ATOM
      1 C          21.9977   40.9079   28.3433 C.2     1  UNL1        0.3419
      2 O          20.8367   41.1895   28.1236 O.2     1  UNL1       -0.2449
      3 C          25.2933   42.7018   28.4857 C.ar    1  UNL1        0.1224
      4 C          24.8853   43.9907   28.7816 C.ar    1  UNL1        0.0199
      5 C          23.5405   44.2813   28.9260 C.ar    1  UNL1        0.0016
      6 C          22.5971   43.2843   28.7870 C.ar    1  UNL1        0.0065
      7 C          23.0021   41.9807   28.4941 C.ar    1  UNL1        0.0770
      8 C          24.3608   41.6954   28.3441 C.ar    1  UNL1        0.0263
      9 S          27.0082   42.3442   28.2968 S.O2    1  UNL1        0.0633
     10 O          27.3961   41.5981   29.4422 O.2     1  UNL1       -0.1528
     11 O          27.6397   43.5638   27.9323 O.2     1  UNL1       -0.1528
     12 N          27.1562   41.3279   26.9977 N.3     1  UNL1       -0.1554
     13 C          27.0764   41.8630   25.6362 C.3     1  UNL1        0.1148
     14 C          26.4844   39.1003   26.2441 C.3     1  UNL1        0.0192
     15 C          27.3669   39.8937   27.2099 C.3     1  UNL1        0.0797
     16 C          28.8363   39.5512   26.9566 C.3     1  UNL1        0.0192
     17 O          22.3694   39.6174   28.4496 O.3     1  UNL1       -0.4365
     18 C          22.2985   39.0177   29.7701 C.3     1  UNL1        0.2521
     19 C          23.4430   38.0531   29.9458 C.ar    1  UNL1        0.0249
     20 C          23.6656   37.4613   31.1751 C.ar    1  UNL1       -0.0004
     21 C          24.7127   36.5731   31.3351 C.ar    1  UNL1       -0.0002
     22 C          25.5430   36.2842   30.2683 C.ar    1  UNL1       -0.0000
     23 C          25.3233   36.8797   29.0403 C.ar    1  UNL1       -0.0002
     24 C          24.2735   37.7645   28.8792 C.ar    1  UNL1       -0.0004
     25 C          20.9926   38.2798   29.9171 C.2     1  UNL1        0.2172
     26 O          20.7422   37.3402   29.1929 O.2     1  UNL1       -0.2872
     27 C          20.0213   38.6998   30.9399 C.ar    1  UNL1        0.0387
     28 C          20.4639   39.2743   32.1357 C.ar    1  UNL1        0.0030
     29 C          19.5474   39.6701   33.0868 C.ar    1  UNL1        0.0001
     30 C          18.1931   39.4901   32.8651 C.ar    1  UNL1        0.0000
     31 C          17.7475   38.9176   31.6864 C.ar    1  UNL1        0.0001
     32 C          18.6512   38.5214   30.7234 C.ar    1  UNL1        0.0030
@<TRIPOS>BOND
     1    14    15    1
     2    15    16    1
     3    15    12    1
     4    12    13    1
     5    12     9    1
     6     9    10    2
     7     9    11    2
     8     9     3    1
     9     3     8   ar
    10     3     4   ar
    11     4     5   ar
    12     5     6   ar
    13     6     7   ar
    14     7     8   ar
    15     7     1    1
    16     1     2    2
    17     1    17    1
    18    17    18    1
    19    18    19    1
    20    18    25    1
    21    19    24   ar
    22    19    20   ar
    23    20    21   ar
    24    21    22   ar
    25    22    23   ar
    26    23    24   ar
    27    25    26    2
    28    25    27    1
    29    27    32   ar
    30    27    28   ar
    31    28    29   ar
    32    29    30   ar
    33    30    31   ar
    34    31    32   ar
@<TRIPOS>MOLECULE
ZINC12249916
 34 36 0 0 0
SMALL
GASTEIGER

@<TRIPOS>ATOM
      1 N          27.1174   33.2698   25.6951 N.ar    1  UNL1       -0.3135
      2 C          27.2373   32.2411   26.5706 C.ar    1  UNL1        0.0414
      3 C          27.1460   32.7418   27.8513 C.ar    1  UNL1        0.0134
      4 C          27.2292   31.9718   29.0270 C.ar    1  UNL1        0.0108
      5 C          27.1417   32.4017   30.3423 C.ar    1  UNL1        0.1147
      6 C          26.9394   33.7674   30.8426 C.ar    1  UNL1        0.2081
      7 O          26.8980   33.8847   32.0547 O.2     1  UNL1       -0.2861
      8 C          26.7809   35.0108   30.0776 C.ar    1  UNL1        0.1147
      9 C          26.7865   35.1807   28.7016 C.ar    1  UNL1        0.0108
     10 C          26.9449   34.2004   27.7034 C.ar    1  UNL1        0.0134
     11 C          26.9390   34.4454   26.3472 C.ar    1  UNL1        0.0414
     12 C          26.7638   35.7940   25.6977 C.3     1  UNL1        0.0504
     13 C          27.4402   30.7935   26.2043 C.3     1  UNL1        0.0504
     14 C          27.2611   32.8681   21.5483 C.ar    1  UNL1        0.0757
     15 C          26.0601   32.6574   22.2312 C.ar    1  UNL1        0.0079
     16 C          26.0178   32.7856   23.6017 C.ar    1  UNL1        0.0177
     17 C          27.1655   33.1355   24.3049 C.ar    1  UNL1        0.0634
     18 C          28.3611   33.3516   23.6281 C.ar    1  UNL1        0.0177
     19 C          28.4125   33.2196   22.2583 C.ar    1  UNL1        0.0079
     20 C          27.3121   32.7257   20.0804 C.2     1  UNL1        0.3412
     21 O          28.3032   32.2664   19.5487 O.2     1  UNL1       -0.2449
     22 O          26.2572   33.0999   19.3303 O.3     1  UNL1       -0.4454
     23 C          26.6239   35.4705   18.9109 C.3     1  UNL1        0.0513
     24 C          26.5045   34.0788   18.2868 C.3     1  UNL1        0.2089
     25 C          26.5927   36.2319   30.8725 C.2     1  UNL1        0.3444
     26 O          27.5564   36.8913   31.2109 O.2     1  UNL1       -0.2448
     27 O          25.3514   36.6213   31.2265 O.3     1  UNL1       -0.4454
     28 C          24.7541   37.6985   30.4577 C.3     1  UNL1        0.2089
     29 C          23.3866   37.2544   29.9346 C.3     1  UNL1        0.0513
     30 C          27.2670   31.3566   31.3671 C.2     1  UNL1        0.3444
     31 O          28.3167   31.2125   31.9632 O.2     1  UNL1       -0.2448
     32 O          26.2178   30.5571   31.6465 O.3     1  UNL1       -0.4454
     33 C          26.3750   29.1411   31.3665 C.3     1  UNL1        0.2089
     34 C          25.5173   28.7620   30.1575 C.3     1  UNL1        0.0513
@<TRIPOS>BOND
     1    23    24    1
     2    24    22    1
     3    22    20    1
     4    20    21    2
     5    20    14    1
     6    14    19   ar
     7    14    15   ar
     8    15    16   ar
     9    16    17   ar
    10    17    18   ar
    11    17     1    1
    12    18    19   ar
    13     1    11   ar
    14     1     2   ar
    15     2     3   ar
    16     2    13    1
    17     3    10   ar
    18     3     4   ar
    19     4     5   ar
    20     5     6   ar
    21     5    30    1
    22     6     7    2
    23     6     8   ar
    24     8     9   ar
    25     8    25    1
    26     9    10   ar
    27    10    11   ar
    28    11    12    1
    29    25    26    2
    30    25    27    1
    31    27    28    1
    32    28    29    1
    33    30    31    2
    34    30    32    1
    35    32    33    1
    36    33    34    1
@<TRIPOS>MOLECULE
ZINC09274825
 33 35 0 0 0
SMALL
GASTEIGER

@<TRIPOS>ATOM
      1 C          20.1941   38.1400   29.8029 C.ar    1  UNL1        0.2481
      2 N          20.2043   37.1403   28.9541 N.ar    1  UNL1       -0.1088
      3 N          21.3439   37.0977   28.3584 N.ar    1  UNL1       -0.1321
      4 C          22.1057   38.0678   28.8031 C.ar    1  UNL1        0.1401
      5 O          21.3977   38.7477   29.7247 O.2     1  UNL1       -0.4384
      6 C          18.2623   39.2338   32.8359 C.ar    1  UNL1        0.1754
      7 C          19.3142   38.8688   32.0147 C.ar    1  UNL1        0.0450
      8 C          19.0727   38.5297   30.6821 C.ar    1  UNL1        0.0613
      9 C          17.7703   38.5653   30.1803 C.ar    1  UNL1        0.0450
     10 C          16.7214   38.9263   31.0070 C.ar    1  UNL1        0.1754
     11 C          16.9648   39.2638   32.3346 C.ar    1  UNL1        0.2059
     12 O          18.4969   39.5642   34.1341 O.3     1  UNL1       -0.4723
     13 C          20.4770   40.2938   35.3120 C.3     1  UNL1        0.0512
     14 C          19.7229   39.1071   34.7085 C.3     1  UNL1        0.2057
     15 O          15.9322   39.6231   33.1441 O.3     1  UNL1       -0.4695
     16 C          15.4785   40.9752   33.0555 C.3     1  UNL1        0.2058
     17 C          15.8099   41.7107   34.3555 C.3     1  UNL1        0.0512
     18 O          15.4519   38.9570   30.5200 O.3     1  UNL1       -0.4723
     19 C          15.2066   38.2486   29.3035 C.3     1  UNL1        0.2057
     20 C          13.8222   37.5996   29.3616 C.3     1  UNL1        0.0512
     21 N          23.3997   38.3459   28.3950 N.am    1  UNL1       -0.5631
     22 C          23.6183   39.2372   27.4079 C.2     1  UNL1        0.0843
     23 O          23.4800   38.9044   26.2470 O.2     1  UNL1       -0.3129
     24 C          24.0260   40.6191   27.7368 C.ar    1  UNL1        0.0156
     25 C          25.3716   40.9862   27.6764 C.ar    1  UNL1        0.0009
     26 C          25.7447   42.2793   27.9791 C.ar    1  UNL1       -0.0042
     27 C          24.7901   43.2085   28.3532 C.ar    1  UNL1       -0.0228
     28 C          23.4555   42.8497   28.4207 C.ar    1  UNL1       -0.0042
     29 C          23.0682   41.5615   28.1150 C.ar    1  UNL1        0.0009
     30 C          25.2059   44.6178   28.6880 C.3     1  UNL1        0.0189
     31 C          26.6392   44.8543   28.2076 C.3     1  UNL1        0.0044
     32 C          24.2659   45.6054   27.9940 C.3     1  UNL1        0.0044
     33 C          25.1350   44.8243   30.2023 C.3     1  UNL1        0.0044
@<TRIPOS>UNITY_ATOM_ATTR
21 1
charge -1
@<TRIPOS>BOND
     1    13    14    1
     2    14    12    1
     3    12     6    1
     4     6    11   ar
     5     6     7   ar
     6     7     8   ar
     7     8     9   ar
     8     8     1    1
     9     9    10   ar
    10    10    11   ar
    11    10    18    1
    12    11    15    1
    13    15    16    1
    14    16    17    1
    15    18    19    1
    16    19    20    1
    17     1     5   ar
    18     1     2   ar
    19     2     3   ar
    20     3     4   ar
    21     4     5   ar
    22     4    21    1
    23    21    22    1
    24    22    23    2
    25    22    24    1
    26    24    29   ar
    27    24    25   ar
    28    25    26   ar
    29    26    27   ar
    30    27    28   ar
    31    27    30    1
    32    28    29   ar
    33    30    31    1
    34    30    32    1
    35    30    33    1
@<TRIPOS>MOLECULE
ZINC05836168
 33 35 0 0 0
SMALL
GASTEIGER

@<TRIPOS>ATOM
      1 C          22.2259   38.6543   29.9073 C.3     1  UNL1        0.1885
      2 C          22.9952   38.8080   28.6239 C.ar    1  UNL1        0.0295
      3 C          22.9231   39.5078   27.4720 C.ar    1  UNL1        0.0817
      4 C          23.9268   39.3194   26.4917 C.ar    1  UNL1        0.3457
      5 O          23.8569   39.9533   25.4539 O.2     1  UNL1       -0.2445
      6 O          24.9582   38.4659   26.6612 O.2     1  UNL1       -0.4211
      7 C          25.0641   37.7534   27.8041 C.ar    1  UNL1        0.1536
      8 C          24.0811   37.9259   28.7720 C.ar    1  UNL1        0.0679
      9 C          24.0414   37.2684   29.9964 C.ar    1  UNL1        0.1407
     10 C          25.0686   36.3719   30.2491 C.ar    1  UNL1        0.0507
     11 C          26.0639   36.1756   29.2944 C.ar    1  UNL1        0.1499
     12 C          26.0771   36.8485   28.0770 C.ar    1  UNL1        0.0864
     13 O          22.9517   37.6832   30.6862 O.3     1  UNL1       -0.4749
     14 C          19.8363   38.7570   30.6294 C.3     1  UNL1        0.0042
     15 C          20.8109   38.1488   29.6190 C.3     1  UNL1        0.0482
     16 C          27.1765   36.6024   27.0760 C.3     1  UNL1        0.1968
     17 C          27.9859   37.8861   26.8816 C.3     1  UNL1        0.0447
     18 C          29.4524   37.6220   27.2290 C.3     1  UNL1        0.0041
     19 C          27.8808   38.3396   25.4241 C.3     1  UNL1        0.0039
     20 C          27.8824   39.8684   25.3643 C.3     1  UNL1        0.0001
     21 O          26.5952   36.2000   25.8078 O.3     1  UNL1       -0.4475
     22 C          26.7034   34.9051   25.4714 C.2     1  UNL1        0.3178
     23 O          26.2706   34.5181   24.4117 O.2     1  UNL1       -0.2501
     24 C          27.3647   33.9341   26.4152 C.3     1  UNL1        0.1212
     25 O          27.0606   35.2933   29.5630 O.3     1  UNL1       -0.4244
     26 C          28.2299   35.8034   29.9823 C.2     1  UNL1        0.3220
     27 O          28.2711   36.9185   30.4458 O.2     1  UNL1       -0.2497
     28 C          29.4908   34.9851   29.8748 C.3     1  UNL1        0.1216
     29 C          25.1081   35.6135   31.5507 C.3     1  UNL1        0.0578
     30 C          25.8356   36.4314   32.5866 C.2     1  UNL1       -0.0297
     31 C          26.7035   35.8578   33.3828 C.2     1  UNL1       -0.0475
     32 C          27.0556   34.4049   33.1922 C.3     1  UNL1        0.0260
     33 C          27.3497   36.6509   34.4894 C.3     1  UNL1        0.0260
@<TRIPOS>BOND
     1    14    15    1
     2    15     1    1
     3     1    13    1
     4     1     2    1
     5     2     8   ar
     6     2     3   ar
     7     3     4   ar
     8     4     5    2
     9     4     6   ar
    10     6     7   ar
    11     7    12   ar
    12     7     8   ar
    13     8     9   ar
    14     9    10   ar
    15     9    13    1
    16    10    11   ar
    17    10    29    1
    18    11    12   ar
    19    11    25    1
    20    12    16    1
    21    16    17    1
    22    16    21    1
    23    17    18    1
    24    17    19    1
    25    19    20    1
    26    21    22    1
    27    22    23    2
    28    22    24    1
    29    25    26    1
    30    26    27    2
    31    26    28    1
    32    29    30    1
    33    30    31    2
    34    31    32    1
    35    31    33    1
@<TRIPOS>MOLECULE
ZINC09445365
 32 34 0 0 0
SMALL
GASTEIGER

@<TRIPOS>ATOM
      1 C          25.0152   37.6440   29.1438 C.ar    1  UNL1        0.1222
      2 C          24.1081   37.7592   28.1053 C.ar    1  UNL1        0.0201
      3 C          22.7645   37.9189   28.3735 C.ar    1  UNL1        0.0059
      4 C          22.3206   37.9646   29.6964 C.ar    1  UNL1        0.0538
      5 C          23.2412   37.8482   30.7394 C.ar    1  UNL1        0.0059
      6 C          24.5820   37.6880   30.4571 C.ar    1  UNL1        0.0201
      7 C          20.8833   38.1415   29.9913 C.2     1  UNL1        0.2499
      8 O          20.0477   37.7457   29.2021 O.2     1  UNL1       -0.2698
      9 N          20.4989   38.7416   31.1352 N.am    1  UNL1       -0.2749
     10 H          21.1757   39.0622   31.7743 H       1  UNL1        0.1557
     11 C          19.1502   38.9076   31.4121 C.ar    1  UNL1        0.0901
     12 C          18.5494   39.1833   32.6277 C.ar    1  UNL1        0.0843
     13 C          17.0933   39.3116   32.6504 C.ar    1  UNL1       -0.0088
     14 C          16.4868   39.1459   31.4603 C.ar    1  UNL1        0.0052
     15 S          17.8104   38.8278   30.3194 S.2     1  UNL1       -0.0762
     16 C          14.9932   39.2956   31.5631 C.3     1  UNL1        0.0330
     17 C          14.7652   40.0077   32.9147 C.3     1  UNL1        0.0099
     18 C          16.0220   39.5920   33.7050 C.3     1  UNL1        0.0276
     19 C          19.3261   39.3369   33.8210 C.1     1  UNL1        0.1019
     20 N          19.9422   39.4588   34.7676 N.1     1  UNL1       -0.1908
     21 S          26.7297   37.4397   28.7921 S.O2    1  UNL1        0.0633
     22 O          26.8215   37.0580   27.4265 O.2     1  UNL1       -0.1528
     23 O          27.3897   38.5874   29.3084 O.2     1  UNL1       -0.1528
     24 N          27.2614   36.1479   29.6815 N.3     1  UNL1       -0.1555
     25 C          26.7415   34.8061   29.4070 C.3     1  UNL1        0.0958
     26 C          27.7547   34.0293   28.5638 C.3     1  UNL1        0.0191
     27 C          27.2065   31.7584   27.6778 C.3     1  UNL1        0.0000
     28 C          27.0200   33.2617   27.4628 C.3     1  UNL1        0.0015
     29 C          28.2515   36.3470   30.7426 C.3     1  UNL1        0.0958
     30 C          27.8464   35.5382   31.9766 C.3     1  UNL1        0.0191
     31 C          26.9542   36.3947   32.8774 C.3     1  UNL1        0.0015
     32 C          25.7733   35.5564   33.3710 C.3     1  UNL1        0.0000
@<TRIPOS>BOND
     1    27    28    1
     2    28    26    1
     3    26    25    1
     4    25    24    1
     5    24    29    1
     6    24    21    1
     7    29    30    1
     8    30    31    1
     9    31    32    1
    10    21    22    2
    11    21    23    2
    12    21     1    1
    13     1     6   ar
    14     1     2   ar
    15     2     3   ar
    16     3     4   ar
    17     4     5   ar
    18     4     7    1
    19     5     6   ar
    20     7     8    2
    21     7     9   am
    22     9    11    1
    23    11    15   ar
    24    11    12   ar
    25    12    13   ar
    26    12    19    1
    27    13    18    1
    28    13    14   ar
    29    14    15   ar
    30    14    16    1
    31    16    17    1
    32    17    18    1
    33    19    20    3
    34     9    10    1
@<TRIPOS>MOLECULE
ZINC29134672
 31 33 0 0 0
SMALL
GASTEIGER

@<TRIPOS>ATOM
      1 C          14.1466   38.3853   30.2469 C.ar    1  UNL1        0.0875
      2 C          15.1385   39.0785   30.9444 C.ar    1  UNL1        0.0275
      3 C          14.8090   39.7957   32.0750 C.ar    1  UNL1        0.1257
      4 C          13.4996   39.8257   32.5233 C.ar    1  UNL1        0.0211
      5 C          12.5104   39.1470   31.8355 C.ar    1  UNL1        0.0130
      6 C          12.8255   38.4243   30.7012 C.ar    1  UNL1        0.0640
      7 CL         11.5840   37.5672   29.8422 Cl      1  UNL1       -0.0820
      8 S          16.0594   40.6705   32.9559 S.O2    1  UNL1        0.0769
      9 O          15.7450   40.5479   34.3363 O.2     1  UNL1       -0.1497
     10 O          16.2004   41.9313   32.3159 O.2     1  UNL1       -0.1497
     11 N          17.4832   39.8584   32.7208 N.pl3   1  UNL1       -0.1862
     12 C          18.4959   39.9322   33.6799 C.ar    1  UNL1        0.0692
     13 C          19.0459   41.1621   34.0183 C.ar    1  UNL1        0.0161
     14 C          20.0474   41.2315   34.9667 C.ar    1  UNL1        0.0013
     15 C          20.5028   40.0783   35.5792 C.ar    1  UNL1        0.0001
     16 C          19.9575   38.8523   35.2447 C.ar    1  UNL1        0.0013
     17 C          18.9558   38.7758   34.2972 C.ar    1  UNL1        0.0161
     18 C          17.6808   39.0626   31.5067 C.3     1  UNL1        0.1419
     19 C          19.1373   39.0884   31.1207 C.2     1  UNL1       -0.0029
     20 C          19.5623   38.3600   30.1184 C.2     1  UNL1       -0.0031
     21 C          14.4920   37.6157   29.0351 C.2     1  UNL1        0.3426
     22 O          15.1353   36.5896   29.1301 O.2     1  UNL1       -0.2449
     23 O          14.0939   38.0516   27.8242 O.3     1  UNL1       -0.4350
     24 C          13.2221   37.1754   27.0621 C.3     1  UNL1        0.2956
     25 C          11.1805   39.1041   24.8259 C.ar    1  UNL1        0.1806
     26 N          12.3020   38.4006   25.0630 N.ar    1  UNL1       -0.1917
     27 C          12.2122   38.0026   26.3092 C.ar    1  UNL1        0.2810
     28 O          11.0513   38.4658   26.7822 O.2     1  UNL1       -0.3334
     29 N          10.4789   39.0982   25.9197 N.ar    1  UNL1       -0.0605
     30 C          10.3346   38.7222   22.5264 C.3     1  UNL1        0.0085
     31 C          10.8064   39.7763   23.5300 C.3     1  UNL1        0.0692
@<TRIPOS>BOND
     1    30    31    1
     2    31    25    1
     3    25    29   ar
     4    25    26   ar
     5    26    27   ar
     6    27    28   ar
     7    27    24    1
     8    28    29   ar
     9    24    23    1
    10    23    21    1
    11    21    22    2
    12    21     1    1
    13     1     6   ar
    14     1     2   ar
    15     2     3   ar
    16     3     4   ar
    17     3     8    1
    18     4     5   ar
    19     5     6   ar
    20     6     7    1
    21     8     9    2
    22     8    10    2
    23     8    11    1
    24    11    18    1
    25    11    12    1
    26    18    19    1
    27    19    20    2
    28    12    17   ar
    29    12    13   ar
    30    13    14   ar
    31    14    15   ar
    32    15    16   ar
    33    16    17   ar
@<TRIPOS>MOLECULE
ZINC05004501
 33 36 0 0 0
SMALL
GASTEIGER

@<TRIPOS>ATOM
      1 C          22.5548   51.5224   26.8031 C.3     1  UNL1        0.0582
      2 C          23.0868   52.9305   27.1361 C.3     1  UNL1        0.0073
      3 C          24.2791   53.1769   26.1925 C.3     1  UNL1        0.0005
      4 C          24.3951   51.9114   25.2997 C.3     1  UNL1        0.0007
      5 C          23.7703   50.8146   26.1760 C.3     1  UNL1        0.0066
      6 C          23.3863   49.5793   25.3966 C.3     1  UNL1        0.0004
      7 C          22.4998   49.9388   24.2073 C.3     1  UNL1        0.0003
      8 C          23.2734   50.8905   23.2834 C.3     1  UNL1        0.0038
      9 C          23.5777   52.1801   24.0449 C.3     1  UNL1        0.0046
     10 C          24.4031   53.0986   23.1319 C.3     1  UNL1        0.0254
     11 C          23.7138   53.2669   21.8121 C.2     1  UNL1       -0.0345
     12 C          22.8178   52.4499   21.3637 C.2     1  UNL1       -0.0455
     13 C          22.3897   51.1978   22.0778 C.3     1  UNL1        0.0151
     14 C          20.9303   51.3484   22.5021 C.3     1  UNL1        0.0074
     15 C          20.1923   52.2855   21.5682 C.3     1  UNL1        0.0444
     16 C          20.7114   52.1525   20.1379 C.3     1  UNL1        0.1763
     17 C          22.1216   52.7524   20.0467 C.3     1  UNL1        0.0654
     18 C          22.4874   50.0271   21.0976 C.3     1  UNL1        0.0040
     19 C          24.7555   50.4294   27.2814 C.3     1  UNL1        0.0004
     20 C          21.4165   51.5959   25.8181 C.2     1  UNL1        0.1615
     21 O          21.2172   52.6145   25.2008 O.2     1  UNL1       -0.2955
     22 C          20.5272   50.3984   25.6035 C.3     1  UNL1        0.1737
     23 C          19.1982   50.6330   26.2745 C.2     1  UNL1        0.3246
     24 O          18.1723   50.3938   25.6829 O.2     1  UNL1       -0.2496
     25 O          19.1546   51.1077   27.5292 O.3     1  UNL1       -0.4482
     26 C          19.9202   49.4779   29.1686 C.3     1  UNL1        0.0513
     27 C          18.7095   50.1925   28.5650 C.3     1  UNL1        0.2086
     28 O          20.7576   50.7491   19.7684 O.3     1  UNL1       -0.4215
     29 C          19.6157   50.1980   19.3188 C.2     1  UNL1        0.5117
     30 O          19.1206   49.2599   19.9098 O.2     1  UNL1       -0.2028
     31 O          19.0223   50.6863   18.2146 O.3     1  UNL1       -0.4181
     32 C          19.6412   50.3707   16.9395 C.3     1  UNL1        0.2122
     33 C          20.3159   51.6232   16.3764 C.3     1  UNL1        0.0514
@<TRIPOS>BOND
     1    26    27    1
     2    27    25    1
     3    25    23    1
     4    23    24    2
     5    23    22    1
     6    22    20    1
     7    20    21    2
     8    20     1    1
     9     1     5    1
    10     1     2    1
    11     2     3    1
    12     3     4    1
    13     4     9    1
    14     4     5    1
    15     5     6    1
    16     5    19    1
    17     6     7    1
    18     7     8    1
    19     8    13    1
    20     8     9    1
    21     9    10    1
    22    10    11    1
    23    11    12    2
    24    12    17    1
    25    12    13    1
    26    13    14    1
    27    13    18    1
    28    14    15    1
    29    15    16    1
    30    16    17    1
    31    16    28    1
    32    28    29    1
    33    29    30    2
    34    29    31    1
    35    31    32    1
    36    32    33    1
@<TRIPOS>MOLECULE
ZINC21760467
 34 36 0 0 0
SMALL
GASTEIGER

@<TRIPOS>ATOM
      1 N          21.1698   38.3175   29.4419 N.ar    1  UNL1       -0.2165
      2 C          21.2154   38.3830   28.0955 C.ar    1  UNL1        0.2763
      3 O          20.2228   38.6703   27.4519 O.2     1  UNL1       -0.2655
      4 C          22.4923   38.1041   27.4237 C.ar    1  UNL1        0.0593
      5 C          22.6447   38.1495   26.0414 C.ar    1  UNL1        0.0048
      6 C          23.8759   37.8692   25.4880 C.ar    1  UNL1        0.0002
      7 C          24.9590   37.5438   26.2941 C.ar    1  UNL1        0.0001
      8 C          24.8282   37.4935   27.6659 C.ar    1  UNL1        0.0019
      9 C          23.5950   37.7727   28.2445 C.ar    1  UNL1        0.0304
     10 C          23.3711   37.7407   29.6990 C.ar    1  UNL1        0.1764
     11 N          22.1782   38.0159   30.1691 N.ar    1  UNL1       -0.1602
     12 C          24.4753   37.4026   30.6169 C.2     1  UNL1        0.3612
     13 O          25.3830   38.1912   30.7916 O.2     1  UNL1       -0.2431
     14 O          24.4772   36.2192   31.2615 O.3     1  UNL1       -0.4386
     15 C          25.6709   35.8814   32.0160 C.3     1  UNL1        0.2446
     16 C          25.2768   35.4629   33.4339 C.3     1  UNL1        0.0575
     17 C          26.3888   34.7434   31.3375 C.2     1  UNL1        0.2663
     18 O          25.8843   33.6409   31.3060 O.2     1  UNL1       -0.2710
     19 N          27.5916   34.9506   30.7657 N.am    1  UNL1       -0.2708
     20 C          28.2011   36.2823   30.8038 C.3     1  UNL1        0.1153
     21 C          28.2895   33.8442   30.1062 C.3     1  UNL1        0.1200
     22 C          27.8336   33.7457   28.6732 C.ar    1  UNL1       -0.0063
     23 C          27.8435   34.8681   27.8659 C.ar    1  UNL1       -0.0029
     24 C          27.4299   34.7767   26.5502 C.ar    1  UNL1       -0.0003
     25 C          26.9964   33.5652   26.0445 C.ar    1  UNL1       -0.0003
     26 C          26.9815   32.4444   26.8530 C.ar    1  UNL1       -0.0045
     27 C          27.4001   32.5346   28.1676 C.ar    1  UNL1       -0.0242
     28 C          27.3833   31.3127   29.0493 C.3     1  UNL1        0.0308
     29 C          19.8956   38.6008   30.1069 C.3     1  UNL1        0.1307
     30 C          20.1634   39.1524   31.5087 C.3     1  UNL1        0.0265
     31 C          18.9233   38.9501   32.3818 C.3     1  UNL1        0.0021
     32 C          19.3411   38.8773   33.8519 C.3     1  UNL1        0.0001
     33 C          20.2030   40.7589   35.2516 C.3     1  UNL1        0.0000
     34 C          20.5265   39.8144   34.0921 C.3     1  UNL1        0.0000
@<TRIPOS>BOND
     1    33    34    1
     2    34    32    1
     3    32    31    1
     4    31    30    1
     5    30    29    1
     6    29     1    1
     7     1    11   ar
     8     1     2   ar
     9     2     3    2
    10     2     4   ar
    11     4     9   ar
    12     4     5   ar
    13     5     6   ar
    14     6     7   ar
    15     7     8   ar
    16     8     9   ar
    17     9    10   ar
    18    10    11   ar
    19    10    12    1
    20    12    13    2
    21    12    14    1
    22    14    15    1
    23    15    16    1
    24    15    17    1
    25    17    18    2
    26    17    19   am
    27    19    20    1
    28    19    21    1
    29    21    22    1
    30    22    27   ar
    31    22    23   ar
    32    23    24   ar
    33    24    25   ar
    34    25    26   ar
    35    26    27   ar
    36    27    28    1
@<TRIPOS>MOLECULE
ZINC06172765
 34 37 0 0 0
SMALL
GASTEIGER

@<TRIPOS>ATOM
      1 C          12.3909   38.0329   29.5548 C.ar    1  UNL1        0.0169
      2 C          13.7382   37.9823   29.4151 C.ar    1  UNL1        0.0007
      3 C          14.5712   38.4823   30.4368 C.ar    1  UNL1        0.0191
      4 C          15.9700   38.4374   30.3089 C.ar    1  UNL1       -0.0851
      5 C          16.7597   38.9559   31.3715 C.ar    1  UNL1        0.0288
      6 C          16.1360   39.4835   32.4874 C.ar    1  UNL1        0.2192
      7 O          14.7959   39.5114   32.5909 O.2     1  UNL1       -0.4469
      8 C          14.0017   39.0382   31.6105 C.ar    1  UNL1        0.1475
      9 C          12.6277   39.0846   31.7417 C.ar    1  UNL1        0.0791
     10 C          11.8148   38.5845   30.7192 C.ar    1  UNL1        0.1948
     11 O          10.5956   38.6250   30.8353 O.2     1  UNL1       -0.2868
     12 O          16.5481   37.9165   29.2072 O.co2   1  UNL1       -0.8727
     13 C          18.2373   38.9308   31.2842 C.ar    1  UNL1        0.0421
     14 C          19.1294   38.6010   32.3264 C.ar    1  UNL1        0.1221
     15 N          20.3470   38.6891   31.8614 N.ar    1  UNL1       -0.1635
     16 N          20.2857   39.0847   30.5199 N.ar    1  UNL1       -0.2281
     17 C          18.9875   39.2288   30.1805 C.ar    1  UNL1        0.1020
     18 C          21.3836   39.2946   29.6746 C.ar    1  UNL1        0.0828
     19 C          21.4752   40.4632   28.9303 C.ar    1  UNL1        0.0191
     20 C          22.5610   40.6694   28.1021 C.ar    1  UNL1        0.0015
     21 C          23.5509   39.7087   28.0054 C.ar    1  UNL1        0.0001
     22 C          23.4598   38.5415   28.7413 C.ar    1  UNL1        0.0015
     23 C          22.3791   38.3318   29.5752 C.ar    1  UNL1        0.0191
     24 C          16.9575   40.0208   33.5884 C.2     1  UNL1        0.3763
     25 O          17.1520   39.3517   34.5836 O.2     1  UNL1       -0.2414
     26 O          17.4924   41.2543   33.4904 O.3     1  UNL1       -0.4433
     27 C          18.3294   41.6991   34.5903 C.3     1  UNL1        0.2090
     28 C          19.7996   41.6312   34.1721 C.3     1  UNL1        0.0513
     29 C          11.5033   37.4972   28.4611 C.3     1  UNL1        0.0296
     30 C          12.2353   37.5869   27.1206 C.3     1  UNL1        0.0048
     31 C          11.2600   38.0513   26.0371 C.3     1  UNL1        0.0003
     32 C          10.4639   36.8517   25.5194 C.3     1  UNL1        0.0000
     33 C          10.3752   38.2562   23.4549 C.3     1  UNL1        0.0000
     34 C          10.5113   36.8294   23.9903 C.3     1  UNL1        0.0000
@<TRIPOS>UNITY_ATOM_ATTR
12 1
charge -1
@<TRIPOS>BOND
     1    33    34    1
     2    34    32    1
     3    32    31    1
     4    31    30    1
     5    30    29    1
     6    29     1    1
     7     1    10   ar
     8     1     2   ar
     9     2     3   ar
    10     3     8    1
    11     3     4   ar
    12     4     5   ar
    13     4    12    1
    14     5     6   ar
    15     5    13    1
    16     6     7   ar
    17     6    24    1
    18     7     8   ar
    19     8     9   ar
    20     9    10   ar
    21    10    11    2
    22    24    25    2
    23    24    26    1
    24    26    27    1
    25    27    28    1
    26    13    17   ar
    27    13    14   ar
    28    14    15   ar
    29    15    16   ar
    30    16    17   ar
    31    16    18    1
    32    18    23   ar
    33    18    19   ar
    34    19    20   ar
    35    20    21   ar
    36    21    22   ar
    37    22    23   ar
@<TRIPOS>MOLECULE
ZINC15772207
 32 34 0 0 0
SMALL
GASTEIGER

@<TRIPOS>ATOM
      1 P          21.3860   51.0294   21.9750 P.3     1  UNL1        0.1612
      2 N          20.2003   50.4493   22.7943 N.2     1  UNL1       -0.1143
      3 C          20.8675   51.2782   20.2545 C.ar    1  UNL1        0.0389
      4 C          21.5914   52.1208   19.4309 C.ar    1  UNL1        0.0050
      5 C          21.2028   52.3080   18.1189 C.ar    1  UNL1        0.0147
      6 C          20.0768   51.6578   17.6302 C.ar    1  UNL1        0.0480
      7 C          19.3487   50.8164   18.4619 C.ar    1  UNL1        0.0147
      8 C          19.7461   50.6292   19.7712 C.ar    1  UNL1        0.0050
      9 N          19.6779   51.8489   16.3053 N.pl3   1  UNL1       -0.3028
     10 C          18.3582   52.4935   16.2401 C.3     1  UNL1        0.1231
     11 C          17.9873   52.7378   14.7750 C.3     1  UNL1        0.1636
     12 O          18.0187   51.4955   14.0671 O.3     1  UNL1       -0.3501
     13 C          19.2894   50.8406   14.1094 C.3     1  UNL1        0.1636
     14 C          19.6735   50.5772   15.5678 C.3     1  UNL1        0.1231
     15 N          20.3482   50.1934   24.0500 N.2     1  UNL1       -0.0415
     16 N          19.4951   50.6461   24.9052 N.2     1  UNL1       -0.1287
     17 C          19.6490   50.3797   26.2124 C.ar    1  UNL1        0.1045
     18 C          18.5328   50.3805   27.0739 C.ar    1  UNL1        0.0210
     19 C          18.7018   50.1087   28.4014 C.ar    1  UNL1        0.0016
     20 C          19.9666   49.8379   28.9045 C.ar    1  UNL1        0.0001
     21 C          21.0720   49.8285   28.0654 C.ar    1  UNL1        0.0016
     22 C          20.9281   50.0974   26.7343 C.ar    1  UNL1        0.0210
     23 N          21.8580   52.5028   22.6373 N.3     1  UNL1       -0.2314
     24 C          20.7684   54.5860   21.9515 C.3     1  UNL1        0.0191
     25 C          20.6958   53.3691   22.8760 C.3     1  UNL1        0.0783
     26 C          22.6276   52.3023   23.8724 C.3     1  UNL1        0.0783
     27 C          22.0885   53.2278   24.9650 C.3     1  UNL1        0.0191
     28 N          22.6793   49.9534   22.0210 N.3     1  UNL1       -0.2314
     29 C          22.2412   48.5895   21.6962 C.3     1  UNL1        0.0783
     30 C          22.6903   48.2338   20.2774 C.3     1  UNL1        0.0191
     31 C          23.7577   50.3880   21.1230 C.3     1  UNL1        0.0783
     32 C          25.0714   50.4649   21.9035 C.3     1  UNL1        0.0191
@<TRIPOS>BOND
     1    24    25    1
     2    25    23    1
     3    23    26    1
     4    23     1    1
     5    26    27    1
     6     1     2    2
     7     1     3    1
     8     1    28    1
     9     2    15    1
    10    15    16    2
    11    16    17    1
    12    17    22   ar
    13    17    18   ar
    14    18    19   ar
    15    19    20   ar
    16    20    21   ar
    17    21    22   ar
    18     3     8   ar
    19     3     4   ar
    20     4     5   ar
    21     5     6   ar
    22     6     7   ar
    23     6     9    1
    24     7     8   ar
    25     9    14    1
    26     9    10    1
    27    10    11    1
    28    11    12    1
    29    12    13    1
    30    13    14    1
    31    28    29    1
    32    28    31    1
    33    29    30    1
    34    31    32    1
@<TRIPOS>MOLECULE
ZINC16733784
 31 33 0 0 0
SMALL
GASTEIGER

@<TRIPOS>ATOM
      1 C          20.2238   38.4286   29.2350 C.2     1  UNL1        0.0104
      2 C          19.6293   38.8449   30.3914 C.2     1  UNL1        0.0847
      3 C          18.2212   38.7435   30.8128 C.2     1  UNL1        0.2595
      4 O          17.3768   38.2300   30.1013 O.2     1  UNL1       -0.2690
      5 N          17.9195   39.2372   32.0019 N.am    1  UNL1       -0.2441
      6 C          18.8577   39.8049   32.7871 C.2     1  UNL1        0.1212
      7 S          18.6682   40.4935   34.3431 S.2     1  UNL1       -0.0272
      8 S          20.3472   39.6557   31.8137 S.3     1  UNL1       -0.0604
      9 C          26.0922   36.9176   29.9628 C.ar    1  UNL1        0.0002
     10 C          26.6003   38.0486   29.3442 C.ar    1  UNL1        0.0031
     11 C          25.7544   39.0457   28.8932 C.ar    1  UNL1        0.0369
     12 C          24.3877   38.9166   29.0589 C.ar    1  UNL1        0.1389
     13 C          23.8690   37.7695   29.6858 C.ar    1  UNL1        0.0338
     14 C          24.7314   36.7701   30.1367 C.ar    1  UNL1        0.0030
     15 C          22.4124   37.6571   29.8485 C.2     1  UNL1        0.0023
     16 C          21.6243   38.4815   29.1049 C.2     1  UNL1        0.0219
     17 C          22.2591   39.4464   28.1373 C.3     1  UNL1        0.2320
     18 O          23.5322   39.8768   28.6285 O.3     1  UNL1       -0.4706
     19 C          16.5353   39.1665   32.4766 C.3     1  UNL1        0.0995
     20 C          15.7755   40.4137   32.0203 C.3     1  UNL1        0.0219
     21 C          14.5552   39.9950   31.1977 C.3     1  UNL1        0.0018
     22 C          13.6378   39.1208   32.0549 C.3     1  UNL1        0.0001
     23 C          12.3958   38.7393   31.2469 C.3     1  UNL1        0.0000
     24 C          12.7802   37.7227   30.1701 C.3     1  UNL1        0.0000
     25 C          11.9005   37.9300   28.9356 C.3     1  UNL1        0.0000
     26 C          12.3838   37.0183   27.8060 C.3     1  UNL1        0.0004
     27 C          11.3658   37.0377   26.6640 C.3     1  UNL1        0.0059
     28 C          11.2101   38.4680   26.1437 C.3     1  UNL1        0.0417
     29 C          11.4421   38.4892   24.6549 C.2     1  UNL1        0.0503
     30 O          11.2491   37.4927   23.9992 O.co2   1  UNL1       -0.5492
     31 O          11.8632   39.6147   24.0571 O.co2   1  UNL1       -0.5492
@<TRIPOS>UNITY_ATOM_ATTR
31 1
charge -1
@<TRIPOS>BOND
     1     9    14   ar
     2     9    10   ar
     3    10    11   ar
     4    11    12   ar
     5    12    18    1
     6    12    13   ar
     7    13    14   ar
     8    13    15    1
     9    15    16    2
    10    16    17    1
    11    16     1    1
    12    17    18    1
    13     1     2    2
    14     2     8    1
    15     2     3    1
    16     3     4    2
    17     3     5   am
    18     5     6    1
    19     5    19    1
    20     6     7    2
    21     6     8    1
    22    19    20    1
    23    20    21    1
    24    21    22    1
    25    22    23    1
    26    23    24    1
    27    24    25    1
    28    25    26    1
    29    26    27    1
    30    27    28    1
    31    28    29    1
    32    29    30   ar
    33    29    31   ar
@<TRIPOS>MOLECULE
ZINC27533194
 32 34 0 0 0
SMALL
GASTEIGER

@<TRIPOS>ATOM
      1 N          26.1855   36.2591   27.2204 N.ar    1  UNL1       -0.1773
      2 C          26.9998   35.1887   27.3233 C.ar    1  UNL1        0.1852
      3 S          27.7035   34.3256   26.0229 S.2     1  UNL1       -0.0110
      4 N          27.1615   34.9228   28.6347 N.ar    1  UNL1       -0.2870
      5 C          26.4262   35.8419   29.3568 C.ar    1  UNL1        0.1681
      6 N          25.8358   36.6493   28.5202 N.ar    1  UNL1       -0.1451
      7 C          26.3256   35.9008   30.8310 C.ar    1  UNL1        0.0698
      8 C          25.2133   35.3642   31.4797 C.ar    1  UNL1        0.0061
      9 C          25.1248   35.4221   32.8551 C.ar    1  UNL1        0.0003
     10 C          26.1359   36.0107   33.5951 C.ar    1  UNL1        0.0031
     11 C          27.2422   36.5458   32.9634 C.ar    1  UNL1        0.0370
     12 C          27.3486   36.4899   31.5830 C.ar    1  UNL1        0.1416
     13 O          28.4386   37.0099   30.9616 O.3     1  UNL1       -0.4713
     14 C          29.7165   36.5275   31.3816 C.3     1  UNL1        0.2525
     15 C          25.7425   36.8940   25.9766 C.3     1  UNL1        0.2437
     16 C          26.8132   39.0385   25.6347 C.3     1  UNL1        0.1698
     17 N          25.6376   38.3453   26.1780 N.4     1  UNL1        0.3031
     18 H          25.6067   38.5208   27.1823 H       1  UNL1        0.2096
     19 C          24.3983   38.8703   25.5896 C.3     1  UNL1        0.1361
     20 C          23.4209   39.2003   26.6882 C.ar    1  UNL1        0.0449
     21 C          22.4944   38.2586   27.0952 C.ar    1  UNL1        0.0263
     22 C          21.6014   38.5594   28.1063 C.ar    1  UNL1        0.1428
     23 C          21.6271   39.8058   28.7040 C.ar    1  UNL1        0.0249
     24 C          22.5491   40.7501   28.2941 C.ar    1  UNL1        0.0130
     25 C          23.4468   40.4478   27.2855 C.ar    1  UNL1        0.0593
     26 CL         24.6056   41.6333   26.7702 Cl      1  UNL1       -0.0824
     27 N          20.6131   37.5488   28.5452 N.pl3   1  UNL1        0.0577
     28 O          19.8231   37.8151   29.4332 O.2     1  UNL1       -0.1261
     29 O          20.5898   36.4508   28.0184 O.2     1  UNL1       -0.1261
     30 C          27.9742   33.8415   29.1974 C.3     1  UNL1        0.1359
     31 C          27.1008   32.6422   29.4619 C.2     1  UNL1       -0.0017
     32 C          26.9907   32.1675   30.6779 C.2     1  UNL1       -0.0029
@<TRIPOS>UNITY_ATOM_ATTR
17 1
charge 1
@<TRIPOS>BOND
     1    16    17    1
     2    17    19    1
     3    17    15    1
     4    19    20    1
     5    20    25   ar
     6    20    21   ar
     7    21    22   ar
     8    22    23   ar
     9    22    27    1
    10    23    24   ar
    11    24    25   ar
    12    25    26    1
    13    27    28    2
    14    27    29    2
    15    15     1    1
    16     1     6   ar
    17     1     2   ar
    18     2     3    2
    19     2     4   ar
    20     4     5   ar
    21     4    30    1
    22     5     6   ar
    23     5     7    1
    24     7    12   ar
    25     7     8   ar
    26     8     9   ar
    27     9    10   ar
    28    10    11   ar
    29    11    12   ar
    30    12    13    1
    31    13    14    1
    32    30    31    1
    33    31    32    2
    34    17    18    1
@<TRIPOS>MOLECULE
ZINC10439180
 33 35 0 0 0
SMALL
GASTEIGER

@<TRIPOS>ATOM
      1 N          24.8939   39.9075   28.1981 N.am    1  UNL1       -0.2759
      2 C          23.5593   40.0930   28.2254 C.2     1  UNL1        0.2668
      3 O          23.0495   40.9357   27.5177 O.2     1  UNL1       -0.2709
      4 H          25.3078   39.2235   28.7725 H       1  UNL1        0.1554
      5 C          26.3794   41.8435   27.6624 C.ar    1  UNL1        0.0915
      6 C          27.1450   42.4634   26.5937 C.ar    1  UNL1       -0.0122
      7 C          27.0841   41.8321   25.4015 C.ar    1  UNL1        0.0047
      8 S          26.0376   40.4321   25.6832 S.2     1  UNL1       -0.0767
      9 C          25.6840   40.6799   27.3611 C.ar    1  UNL1        0.0864
     10 C          27.7589   42.2397   24.1281 C.3     1  UNL1        0.0327
     11 C          28.2338   43.6924   24.2758 C.3     1  UNL1        0.0055
     12 C          28.9643   43.8390   25.6138 C.3     1  UNL1        0.0050
     13 C          27.9637   43.7369   26.7665 C.3     1  UNL1        0.0268
     14 C          26.3459   42.4221   29.0073 C.2     1  UNL1        0.3426
     15 O          26.4705   41.7043   29.9813 O.2     1  UNL1       -0.2448
     16 O          26.1769   43.7509   29.1658 O.3     1  UNL1       -0.4454
     17 C          23.8099   44.1734   28.7800 C.3     1  UNL1        0.0513
     18 C          24.9475   44.1876   29.8030 C.3     1  UNL1        0.2089
     19 C          22.7003   39.2531   29.1353 C.3     1  UNL1        0.2447
     20 C          23.5212   38.0779   29.6700 C.3     1  UNL1        0.0575
     21 O          21.5768   38.7564   28.4052 O.3     1  UNL1       -0.4397
     22 C          20.5587   38.2394   29.1245 C.2     1  UNL1        0.3418
     23 O          20.1630   37.1119   28.8952 O.2     1  UNL1       -0.2449
     24 C          19.9511   39.0090   30.1457 C.2     1  UNL1        0.0820
     25 C          19.3320   38.3938   31.1778 C.2     1  UNL1        0.0090
     26 C          18.7014   39.1924   32.2376 C.ar    1  UNL1        0.0287
     27 C          19.3484   39.7579   33.3613 C.ar    1  UNL1        0.0800
     28 N          18.4525   40.3919   34.0663 N.ar    1  UNL1       -0.1739
     29 N          17.2087   40.2703   33.4369 N.ar    1  UNL1       -0.2532
     30 C          17.3637   39.5334   32.3240 C.ar    1  UNL1        0.0571
     31 C          16.2810   39.1540   31.3467 C.3     1  UNL1        0.0517
     32 C          15.9490   40.8472   33.9127 C.3     1  UNL1        0.1533
     33 C          20.8155   39.6471   33.6872 C.3     1  UNL1        0.0540
@<TRIPOS>BOND
     1    17    18    1
     2    18    16    1
     3    16    14    1
     4    14    15    2
     5    14     5    1
     6     5     9   ar
     7     5     6   ar
     8     6    13    1
     9     6     7   ar
    10     7     8   ar
    11     7    10    1
    12     8     9   ar
    13     9     1    1
    14     1     2   am
    15     2     3    2
    16     2    19    1
    17    19    20    1
    18    19    21    1
    19    21    22    1
    20    22    23    2
    21    22    24    1
    22    24    25    2
    23    25    26    1
    24    26    30   ar
    25    26    27   ar
    26    27    28   ar
    27    27    33    1
    28    28    29   ar
    29    29    30   ar
    30    29    32    1
    31    30    31    1
    32    10    11    1
    33    11    12    1
    34    12    13    1
    35     1     4    1
@<TRIPOS>MOLECULE
ZINC12603486
 31 33 0 0 0
SMALL
GASTEIGER

@<TRIPOS>ATOM
      1 C          22.1903   39.0218   28.6147 C.ar    1  UNL1        0.1650
      2 N          22.2037   40.2555   28.2014 N.ar    1  UNL1       -0.2271
      3 C          23.4632   40.7543   28.2937 C.ar    1  UNL1        0.0998
      4 C          24.0330   41.9945   27.9938 C.ar    1  UNL1        0.0405
      5 C          25.3677   42.1983   28.2008 C.ar    1  UNL1        0.1238
      6 C          26.1682   41.1846   28.7083 C.ar    1  UNL1        0.0215
      7 C          25.6278   39.9533   29.0118 C.ar    1  UNL1        0.0201
      8 C          24.2732   39.7276   28.8076 C.ar    1  UNL1        0.0788
      9 N          23.4391   38.6446   29.0004 N.ar    1  UNL1       -0.3119
     10 S          26.0802   43.7642   27.8200 S.O2    1  UNL1        0.0634
     11 O          27.3863   43.7629   28.3798 O.2     1  UNL1       -0.1528
     12 O          25.8441   43.9923   26.4374 O.2     1  UNL1       -0.1528
     13 N          25.2134   44.9099   28.6435 N.3     1  UNL1       -0.1526
     14 C          24.6524   46.0585   27.9278 C.3     1  UNL1        0.1150
     15 C          25.0074   44.7749   30.0876 C.3     1  UNL1        0.1150
     16 C          20.9683   38.1414   28.6650 C.3     1  UNL1        0.2718
     17 O          20.5400   37.9863   30.0437 O.3     1  UNL1       -0.4367
     18 C          19.3404   38.5071   30.3746 C.2     1  UNL1        0.3477
     19 O          18.4071   38.4252   29.5989 O.2     1  UNL1       -0.2443
     20 C          18.1073   40.1771   33.5150 C.ar    1  UNL1       -0.0195
     21 C          17.9887   39.5700   32.2903 C.ar    1  UNL1        0.0089
     22 C          19.1617   39.1705   31.6672 C.ar    1  UNL1        0.1045
     23 S          20.3957   39.6691   32.8554 S.2     1  UNL1       -0.0852
     24 C          19.3438   40.3554   34.0504 C.ar    1  UNL1        0.0039
     25 C          19.7111   40.9900   35.3670 C.3     1  UNL1        0.0378
     26 C          16.8808   40.6403   34.2582 C.3     1  UNL1        0.0266
     27 C          14.8925   40.6726   32.7456 C.3     1  UNL1        0.0004
     28 C          16.0259   41.5131   33.3373 C.3     1  UNL1        0.0047
     29 C          23.8270   37.3323   29.5236 C.3     1  UNL1        0.1073
     30 C          23.9666   37.4108   31.0452 C.3     1  UNL1        0.0245
     31 C          25.1380   36.5356   31.4956 C.3     1  UNL1        0.0021
@<TRIPOS>BOND
     1    27    28    1
     2    28    26    1
     3    26    20    1
     4    20    24   ar
     5    20    21   ar
     6    21    22   ar
     7    22    23   ar
     8    22    18    1
     9    23    24   ar
    10    24    25    1
    11    18    19    2
    12    18    17    1
    13    17    16    1
    14    16     1    1
    15     1     9   ar
    16     1     2   ar
    17     2     3   ar
    18     3     8   ar
    19     3     4   ar
    20     4     5   ar
    21     5     6   ar
    22     5    10    1
    23     6     7   ar
    24     7     8   ar
    25     8     9   ar
    26     9    29    1
    27    29    30    1
    28    30    31    1
    29    10    11    2
    30    10    12    2
    31    10    13    1
    32    13    14    1
    33    13    15    1
@<TRIPOS>MOLECULE
ZINC30709467
 33 35 0 0 0
SMALL
GASTEIGER

@<TRIPOS>ATOM
      1 C          21.5748   39.9455   28.8189 C.3     1  UNL1        0.2449
      2 C          21.5210   41.4406   28.4985 C.3     1  UNL1        0.0575
      3 N          23.8257   39.3708   27.9694 N.am    1  UNL1       -0.2546
      4 C          22.4892   39.2545   27.8404 C.2     1  UNL1        0.2697
      5 O          22.0224   38.5938   26.9367 O.2     1  UNL1       -0.2706
      6 C          26.6344   35.6445   26.4213 C.3     1  UNL1        0.0311
      7 C          26.0482   37.0186   26.2236 C.ar    1  UNL1       -0.0209
      8 C          26.3465   37.7391   25.0816 C.ar    1  UNL1       -0.0084
      9 C          25.8099   38.9999   24.8960 C.ar    1  UNL1       -0.0209
     10 C          24.9737   39.5436   25.8514 C.ar    1  UNL1        0.0106
     11 C          24.6725   38.8229   26.9995 C.ar    1  UNL1        0.0533
     12 C          25.2180   37.5595   27.1858 C.ar    1  UNL1        0.0106
     13 C          26.1373   39.7814   23.6497 C.3     1  UNL1        0.0311
     14 C          24.3919   40.0708   29.1251 C.3     1  UNL1        0.1145
     15 C          25.0521   41.3706   28.6610 C.3     1  UNL1        0.1272
     16 C          26.3926   41.4808   29.2590 C.1     1  UNL1        0.0750
     17 N          27.4272   41.5658   29.7205 N.1     1  UNL1       -0.1958
     18 O          20.2411   39.3804   28.7171 O.3     1  UNL1       -0.4397
     19 C          19.8928   38.4646   29.6412 C.2     1  UNL1        0.3423
     20 O          20.0054   37.2808   29.3954 O.2     1  UNL1       -0.2449
     21 C          19.3726   38.9011   30.9562 C.ar    1  UNL1        0.0884
     22 C          20.2414   39.2605   31.9886 C.ar    1  UNL1        0.0219
     23 C          19.7194   39.6639   33.2041 C.ar    1  UNL1        0.0594
     24 N          18.4184   39.7157   33.4085 N.ar    1  UNL1       -0.2428
     25 C          17.5452   39.3876   32.4689 C.ar    1  UNL1        0.1161
     26 C          17.9857   38.9715   31.2003 C.ar    1  UNL1        0.0981
     27 C          20.6574   40.0516   34.3181 C.3     1  UNL1        0.0403
     28 C          20.2822   39.6243   35.7385 C.3     1  UNL1        0.0063
     29 C          20.1660   41.0936   35.3249 C.3     1  UNL1        0.0063
     30 C          17.0453   38.6214   30.1787 C.1     1  UNL1        0.1027
     31 N          16.2992   38.3436   29.3682 N.1     1  UNL1       -0.1908
     32 S          15.8187   39.4802   32.8084 S.3     1  UNL1       -0.0934
     33 C          15.6088   41.2764   32.8822 C.3     1  UNL1        0.0757
@<TRIPOS>BOND
     1     6     7    1
     2     7    12   ar
     3     7     8   ar
     4     8     9   ar
     5     9    10   ar
     6     9    13    1
     7    10    11   ar
     8    11    12   ar
     9    11     3    1
    10     3    14    1
    11     3     4   am
    12    14    15    1
    13    15    16    1
    14    16    17    3
    15     4     5    2
    16     4     1    1
    17     1     2    1
    18     1    18    1
    19    18    19    1
    20    19    20    2
    21    19    21    1
    22    21    26   ar
    23    21    22   ar
    24    22    23   ar
    25    23    24   ar
    26    23    27    1
    27    24    25   ar
    28    25    26   ar
    29    25    32    1
    30    26    30    1
    31    30    31    3
    32    32    33    1
    33    27    29    1
    34    27    28    1
    35    28    29    1
@<TRIPOS>MOLECULE
ZINC22135134
 32 34 0 0 0
SMALL
GASTEIGER

@<TRIPOS>ATOM
      1 N          19.7243   38.7910   30.8313 N.am    1  UNL1       -0.2338
      2 C          20.3305   38.8317   29.6282 C.2     1  UNL1        0.2767
      3 O          19.6764   39.0405   28.6246 O.2     1  UNL1       -0.2677
      4 C          18.3470   38.8771   30.9146 C.ar    1  UNL1        0.1689
      5 N          17.4387   38.5155   30.0213 N.ar    1  UNL1       -0.2279
      6 C          16.1595   38.6565   30.2494 C.ar    1  UNL1        0.0736
      7 C          15.7764   39.2136   31.4623 C.ar    1  UNL1        0.1211
      8 S          17.3736   39.4937   32.2136 S.2     1  UNL1       -0.0450
      9 C          15.1352   38.2355   29.2275 C.3     1  UNL1        0.0529
     10 C          14.4390   39.4930   31.9804 C.2     1  UNL1        0.3486
     11 O          14.2380   40.4987   32.6349 O.2     1  UNL1       -0.2443
     12 O          13.4270   38.6355   31.7330 O.3     1  UNL1       -0.4451
     13 C          12.1319   39.2030   31.5256 C.3     1  UNL1        0.2089
     14 C          11.2015   38.1457   30.9277 C.3     1  UNL1        0.0513
     15 C          21.7864   38.6229   29.5290 C.ar    1  UNL1        0.1902
     16 C          22.7330   39.5305   28.9885 C.ar    1  UNL1        0.1815
     17 C          23.9366   38.9149   29.1119 C.ar    1  UNL1        0.1389
     18 N          23.7082   37.7028   29.6876 N.ar    1  UNL1       -0.2249
     19 N          22.4539   37.5537   29.9214 N.ar    1  UNL1       -0.1572
     20 C          24.6973   36.7556   29.9822 C.ar    1  UNL1        0.0830
     21 C          24.6026   35.9859   31.1341 C.ar    1  UNL1        0.0192
     22 C          25.5767   35.0492   31.4192 C.ar    1  UNL1        0.0015
     23 C          26.6512   34.8850   30.5644 C.ar    1  UNL1        0.0001
     24 C          26.7512   35.6536   29.4191 C.ar    1  UNL1        0.0015
     25 C          25.7776   36.5883   29.1259 C.ar    1  UNL1        0.0192
     26 O          22.4869   40.7602   28.4603 O.3     1  UNL1       -0.4681
     27 C          23.5573   41.3879   27.7517 C.3     1  UNL1        0.2526
     28 C          20.5248   38.6556   32.0506 C.3     1  UNL1        0.1005
     29 C          20.4185   39.9397   32.8758 C.3     1  UNL1        0.0220
     30 C          20.4102   39.5896   34.3651 C.3     1  UNL1        0.0018
     31 C          18.9472   41.4977   35.0443 C.3     1  UNL1        0.0000
     32 C          20.3373   40.8756   35.1909 C.3     1  UNL1        0.0001
@<TRIPOS>BOND
     1    31    32    1
     2    32    30    1
     3    30    29    1
     4    29    28    1
     5    28     1    1
     6     1     4    1
     7     1     2   am
     8     4     8   ar
     9     4     5   ar
    10     5     6   ar
    11     6     7   ar
    12     6     9    1
    13     7     8   ar
    14     7    10    1
    15    10    11    2
    16    10    12    1
    17    12    13    1
    18    13    14    1
    19     2     3    2
    20     2    15    1
    21    15    19   ar
    22    15    16   ar
    23    16    17   ar
    24    16    26    1
    25    17    18   ar
    26    18    19   ar
    27    18    20    1
    28    20    25   ar
    29    20    21   ar
    30    21    22   ar
    31    22    23   ar
    32    23    24   ar
    33    24    25   ar
    34    26    27    1
@<TRIPOS>MOLECULE
ZINC27590934
 32 34 0 0 0
SMALL
GASTEIGER

@<TRIPOS>ATOM
      1 C          13.1511   37.6636   28.3236 C.2     1  UNL1        0.0819
      2 C          14.4660   37.7393   28.6162 C.2     1  UNL1        0.0067
      3 C          14.9043   38.3516   29.8808 C.ar    1  UNL1        0.0003
      4 C          13.9673   38.6730   30.8680 C.ar    1  UNL1        0.0014
      5 C          14.3858   39.2470   32.0499 C.ar    1  UNL1        0.0199
      6 C          15.7292   39.5051   32.2604 C.ar    1  UNL1        0.1222
      7 C          16.6620   39.1947   31.2861 C.ar    1  UNL1        0.0199
      8 C          16.2599   38.6156   30.1011 C.ar    1  UNL1        0.0014
      9 S          16.2538   40.2391   33.7738 S.O2    1  UNL1        0.0633
     10 O          16.1059   39.2462   34.7796 O.2     1  UNL1       -0.1528
     11 O          15.6146   41.5057   33.8539 O.2     1  UNL1       -0.1528
     12 N          17.8773   40.5362   33.6372 N.3     1  UNL1       -0.1555
     13 C          18.7378   39.5943   32.9817 C.3     1  UNL1        0.0958
     14 C          19.3359   38.4808   33.8770 C.3     1  UNL1        0.0191
     15 C          19.7763   39.0709   35.2392 C.3     1  UNL1        0.0015
     16 C          20.3919   40.4280   35.0576 C.3     1  UNL1        0.0015
     17 C          19.2769   41.4231   35.3608 C.3     1  UNL1        0.0191
     18 C          18.4722   41.7958   34.1980 C.3     1  UNL1        0.0958
     19 C          12.7156   37.0553   27.0672 C.2     1  UNL1        0.3418
     20 O          12.5751   35.8495   26.9919 O.2     1  UNL1       -0.2449
     21 O          12.4696   37.8314   25.9916 O.3     1  UNL1       -0.4395
     22 C          11.1156   38.2359   25.7793 C.3     1  UNL1        0.2471
     23 C          10.3266   37.0763   25.1683 C.3     1  UNL1        0.0578
     24 C          11.5664   40.8714   23.3835 C.ar    1  UNL1        0.1806
     25 N          12.0328   39.7767   24.0104 N.ar    1  UNL1       -0.1919
     26 C          11.0847   39.4144   24.8406 C.ar    1  UNL1        0.2766
     27 O          10.0879   40.2935   24.6994 O.2     1  UNL1       -0.3336
     28 N          10.3834   41.1188   23.8609 N.ar    1  UNL1       -0.0605
     29 C          12.2856   41.6679   22.3256 C.3     1  UNL1        0.0692
     30 C          11.7621   41.2704   20.9440 C.3     1  UNL1        0.0081
     31 C          10.7030   43.5331   20.9800 C.3     1  UNL1        0.0000
     32 C          11.4794   42.5307   20.1237 C.3     1  UNL1        0.0005
@<TRIPOS>BOND
     1    31    32    1
     2    32    30    1
     3    30    29    1
     4    29    24    1
     5    24    28   ar
     6    24    25   ar
     7    25    26   ar
     8    26    27   ar
     9    26    22    1
    10    27    28   ar
    11    22    23    1
    12    22    21    1
    13    21    19    1
    14    19    20    2
    15    19     1    1
    16     1     2    2
    17     2     3    1
    18     3     8   ar
    19     3     4   ar
    20     4     5   ar
    21     5     6   ar
    22     6     7   ar
    23     6     9    1
    24     7     8   ar
    25     9    10    2
    26     9    11    2
    27     9    12    1
    28    12    18    1
    29    12    13    1
    30    13    14    1
    31    14    15    1
    32    15    16    1
    33    16    17    1
    34    17    18    1
@<TRIPOS>MOLECULE
ZINC05836163
 33 35 0 0 0
SMALL
GASTEIGER

@<TRIPOS>ATOM
      1 C          23.5354   43.2316   28.1599 C.3     1  UNL1        0.1885
      2 C          24.7074   42.3043   27.9886 C.ar    1  UNL1        0.0295
      3 C          26.0222   42.3706   27.6907 C.ar    1  UNL1        0.0817
      4 C          26.7741   41.1725   27.6378 C.ar    1  UNL1        0.3457
      5 O          27.9601   41.2379   27.3681 O.2     1  UNL1       -0.2445
      6 O          26.2293   39.9606   27.8738 O.2     1  UNL1       -0.4211
      7 C          24.9162   39.8577   28.1741 C.ar    1  UNL1        0.1536
      8 C          24.1674   41.0279   28.2292 C.ar    1  UNL1        0.0679
      9 C          22.8089   41.0941   28.5178 C.ar    1  UNL1        0.1407
     10 C          22.1736   39.8893   28.7771 C.ar    1  UNL1        0.0507
     11 C          22.8998   38.7016   28.7287 C.ar    1  UNL1        0.1499
     12 C          24.2584   38.6659   28.4321 C.ar    1  UNL1        0.0864
     13 O          22.4132   42.3895   28.4880 O.3     1  UNL1       -0.4749
     14 C          24.5890   45.4167   28.7581 C.3     1  UNL1        0.0042
     15 C          23.8052   44.2185   29.2975 C.3     1  UNL1        0.0482
     16 C          25.0010   37.3552   28.3914 C.3     1  UNL1        0.1968
     17 C          25.8746   37.3027   27.1364 C.3     1  UNL1        0.0447
     18 C          26.8366   36.1170   27.2340 C.3     1  UNL1        0.0041
     19 C          24.9852   37.1376   25.9025 C.3     1  UNL1        0.0039
     20 C          25.0591   38.4043   25.0473 C.3     1  UNL1        0.0001
     21 O          25.8401   37.2376   29.5705 O.3     1  UNL1       -0.4475
     22 C          25.4014   36.4355   30.5532 C.2     1  UNL1        0.3178
     23 O          24.5208   36.8099   31.2909 O.2     1  UNL1       -0.2501
     24 C          26.0070   35.0677   30.7364 C.3     1  UNL1        0.1212
     25 O          22.2561   37.5327   28.9806 O.3     1  UNL1       -0.4244
     26 C          21.3843   37.1045   28.0532 C.2     1  UNL1        0.3220
     27 O          20.4686   36.3836   28.3720 O.2     1  UNL1       -0.2497
     28 C          21.5481   37.5232   26.6148 C.3     1  UNL1        0.1216
     29 C          20.7026   39.8643   29.1036 C.3     1  UNL1        0.0578
     30 C          20.5211   39.7408   30.5946 C.2     1  UNL1       -0.0297
     31 C          19.4802   39.1087   31.0776 C.2     1  UNL1       -0.0475
     32 C          19.3706   38.8601   32.5598 C.3     1  UNL1        0.0260
     33 C          18.3924   38.6303   30.1508 C.3     1  UNL1        0.0260
@<TRIPOS>BOND
     1    14    15    1
     2    15     1    1
     3     1    13    1
     4     1     2    1
     5     2     8   ar
     6     2     3   ar
     7     3     4   ar
     8     4     5    2
     9     4     6   ar
    10     6     7   ar
    11     7    12   ar
    12     7     8   ar
    13     8     9   ar
    14     9    10   ar
    15     9    13    1
    16    10    11   ar
    17    10    29    1
    18    11    12   ar
    19    11    25    1
    20    12    16    1
    21    16    17    1
    22    16    21    1
    23    17    18    1
    24    17    19    1
    25    19    20    1
    26    21    22    1
    27    22    23    2
    28    22    24    1
    29    25    26    1
    30    26    27    2
    31    26    28    1
    32    29    30    1
    33    30    31    2
    34    31    32    1
    35    31    33    1
@<TRIPOS>MOLECULE
ZINC31438248
 31 34 0 0 0
SMALL
GASTEIGER

@<TRIPOS>ATOM
      1 N          23.4203   39.2787   28.5113 N.ar    1  UNL1       -0.2757
      2 C          24.6875   38.8328   28.6017 C.ar    1  UNL1        0.2639
      3 O          25.5588   39.2939   27.8846 O.2     1  UNL1       -0.2669
      4 C          24.9949   37.8091   29.5520 C.ar    1  UNL1        0.0762
      5 C          26.3001   37.1805   29.8153 C.ar    1  UNL1       -0.0136
      6 C          26.3378   36.2361   30.7687 C.ar    1  UNL1        0.0049
      7 S          24.6658   36.1126   31.3614 S.2     1  UNL1       -0.0725
      8 C          23.9221   37.3470   30.3278 C.ar    1  UNL1        0.1168
      9 N          22.6918   37.8288   30.1899 N.ar    1  UNL1       -0.2158
     10 C          22.4335   38.7721   29.3066 C.ar    1  UNL1        0.1740
     11 C          27.7202   35.6699   30.9535 C.3     1  UNL1        0.0330
     12 C          28.6534   36.6977   30.2765 C.3     1  UNL1        0.0099
     13 C          27.7106   37.3424   29.2417 C.3     1  UNL1        0.0271
     14 C          23.0948   40.3275   27.5416 C.3     1  UNL1        0.1110
     15 C          23.6033   41.6750   28.0577 C.3     1  UNL1        0.0247
     16 C          22.4151   42.5386   28.4857 C.3     1  UNL1        0.0020
     17 C          22.9276   43.8387   29.1084 C.3     1  UNL1        0.0001
     18 C          24.9931   45.2439   29.1517 C.3     1  UNL1        0.0000
     19 C          24.0854   44.3841   28.2699 C.3     1  UNL1        0.0000
     20 S          20.7902   39.3880   29.1497 S.3     1  UNL1       -0.0754
     21 C          20.3288   39.5013   30.8962 C.3     1  UNL1        0.0870
     22 C          19.3827   38.3520   31.2494 C.3     1  UNL1        0.1114
     23 N          18.0856   38.8956   31.6594 N.am    1  UNL1       -0.2460
     24 C          17.8515   39.4778   32.8520 C.2     1  UNL1        0.2107
     25 O          18.6445   39.6443   33.7539 O.2     1  UNL1       -0.2763
     26 C          16.3910   39.8831   32.8306 C.3     1  UNL1       -0.0138
     27 N          15.9264   39.4335   31.5070 N.am    1  UNL1       -0.6124
     28 C          16.9855   38.8703   30.8983 C.2     1  UNL1        0.1377
     29 O          16.9474   38.3919   29.7816 O.2     1  UNL1       -0.2967
     30 C          16.2471   41.4004   32.9649 C.3     1  UNL1       -0.0127
     31 C          15.6217   39.1675   33.9429 C.3     1  UNL1       -0.0127
@<TRIPOS>UNITY_ATOM_ATTR
27 1
charge -1
@<TRIPOS>BOND
     1    18    19    1
     2    19    17    1
     3    17    16    1
     4    16    15    1
     5    15    14    1
     6    14     1    1
     7     1    10   ar
     8     1     2   ar
     9     2     3    2
    10     2     4   ar
    11     4     8   ar
    12     4     5   ar
    13     5    13    1
    14     5     6   ar
    15     6     7   ar
    16     6    11    1
    17     7     8   ar
    18     8     9   ar
    19     9    10   ar
    20    10    20    1
    21    20    21    1
    22    21    22    1
    23    22    23    1
    24    23    28   am
    25    23    24   am
    26    24    25    2
    27    24    26    1
    28    26    27    1
    29    26    30    1
    30    26    31    1
    31    27    28    1
    32    28    29    2
    33    11    12    1
    34    12    13    1
@<TRIPOS>MOLECULE
ZINC09431820
 30 32 0 0 0
SMALL
GASTEIGER

@<TRIPOS>ATOM
      1 C          20.9996   52.8475   22.9759 C.ar    1  UNL1       -0.0850
      2 C          20.8254   51.8948   23.9716 C.ar    1  UNL1        0.0593
      3 C          20.6015   52.3902   25.3164 C.ar    1  UNL1        0.0113
      4 C          20.5734   53.7384   25.4735 C.ar    1  UNL1        0.0338
      5 S          20.8535   54.3491   23.8246 S.2     1  UNL1       -0.1111
      6 C          20.4074   51.4697   26.4619 C.ar    1  UNL1        0.0007
      7 C          19.1234   51.0652   26.8248 C.ar    1  UNL1        0.0000
      8 C          18.9494   50.2036   27.8886 C.ar    1  UNL1        0.0000
      9 C          20.0448   49.7503   28.6015 C.ar    1  UNL1        0.0000
     10 C          21.3206   50.1527   28.2496 C.ar    1  UNL1        0.0000
     11 C          21.5076   51.0095   27.1842 C.ar    1  UNL1        0.0000
     12 C          20.8692   50.4621   23.6790 C.2     1  UNL1        0.3399
     13 O          19.8434   49.8081   23.6870 O.2     1  UNL1       -0.2449
     14 O          22.0469   49.8663   23.4002 O.3     1  UNL1       -0.4455
     15 C          23.2175   50.3583   24.1042 C.3     1  UNL1        0.2089
     16 C          23.8618   49.2119   24.8861 C.3     1  UNL1        0.0513
     17 N          21.2294   52.6446   21.6260 N.am    1  UNL1       -0.6042
     18 C          20.2405   52.1809   20.8364 C.2     1  UNL1        0.1005
     19 O          19.0980   52.5561   21.0100 O.2     1  UNL1       -0.3113
     20 C          21.1938   49.1029   19.0861 C.ar    1  UNL1        0.1901
     21 N          21.1088   49.4335   17.8042 N.ar    1  UNL1       -0.2188
     22 C          20.7450   50.6492   17.4382 C.ar    1  UNL1        0.1140
     23 C          20.4480   51.5918   18.4152 C.ar    1  UNL1        0.0957
     24 C          20.5470   51.2128   19.7555 C.ar    1  UNL1        0.1109
     25 N          20.9151   49.9674   20.0478 N.ar    1  UNL1       -0.2190
     26 CL         19.9661   53.2018   17.9798 Cl      1  UNL1       -0.0790
     27 S          21.6842   47.4670   19.5193 S.3     1  UNL1       -0.0757
     28 C          23.4547   47.5629   19.1554 C.3     1  UNL1        0.0652
     29 C          24.6397   48.1266   21.2815 C.3     1  UNL1        0.0009
     30 C          24.0830   48.6927   19.9736 C.3     1  UNL1        0.0121
@<TRIPOS>UNITY_ATOM_ATTR
17 1
charge -1
@<TRIPOS>BOND
     1    29    30    1
     2    30    28    1
     3    28    27    1
     4    27    20    1
     5    20    25   ar
     6    20    21   ar
     7    21    22   ar
     8    22    23   ar
     9    23    24   ar
    10    23    26    1
    11    24    25   ar
    12    24    18    1
    13    18    19    2
    14    18    17    1
    15    17     1    1
    16     1     5   ar
    17     1     2   ar
    18     2     3   ar
    19     2    12    1
    20     3     4   ar
    21     3     6    1
    22     4     5   ar
    23     6    11   ar
    24     6     7   ar
    25     7     8   ar
    26     8     9   ar
    27     9    10   ar
    28    10    11   ar
    29    12    13    2
    30    12    14    1
    31    14    15    1
    32    15    16    1
@<TRIPOS>MOLECULE
ZINC25782190
 34 37 0 0 0
SMALL
GASTEIGER

@<TRIPOS>ATOM
      1 C          21.0884   38.2733   28.1484 C.3     1  UNL1        0.2531
      2 C          22.4041   39.0029   28.4537 C.3     1  UNL1        0.2564
      3 C          23.5608   38.1305   27.9544 C.3     1  UNL1        0.2378
      4 C          23.2583   37.6462   26.5625 C.2     1  UNL1        0.0606
      5 C          22.0528   37.6676   26.0583 C.2     1  UNL1        0.1715
      6 O          20.9749   38.1298   26.7296 O.2     1  UNL1       -0.4686
      7 C          19.9095   39.0911   28.6799 C.3     1  UNL1        0.2558
      8 O          19.1369   38.2815   29.6051 O.3     1  UNL1       -0.4413
      9 C          19.0863   38.6964   30.8857 C.2     1  UNL1        0.3413
     10 O          20.1134   38.8442   31.5172 O.2     1  UNL1       -0.2449
     11 C          15.3362   39.4873   32.7147 C.ar    1  UNL1        0.0000
     12 C          15.3862   39.0888   31.3905 C.ar    1  UNL1        0.0002
     13 C          16.6010   38.8305   30.7902 C.ar    1  UNL1        0.0064
     14 C          17.7818   38.9717   31.5219 C.ar    1  UNL1        0.0756
     15 C          17.7236   39.3686   32.8593 C.ar    1  UNL1        0.0064
     16 C          16.5025   39.6291   33.4456 C.ar    1  UNL1        0.0002
     17 O          24.7849   38.9114   27.9398 O.3     1  UNL1       -0.4406
     18 C          25.6292   38.7447   28.9762 C.2     1  UNL1        0.3415
     19 O          26.3957   39.6351   29.2843 O.2     1  UNL1       -0.2449
     20 C          25.6228   37.4790   29.7378 C.ar    1  UNL1        0.0757
     21 C          26.4373   36.4169   29.3398 C.ar    1  UNL1        0.0064
     22 C          26.4306   35.2397   30.0590 C.ar    1  UNL1        0.0002
     23 C          25.6110   35.1060   31.1656 C.ar    1  UNL1        0.0000
     24 C          24.7972   36.1525   31.5622 C.ar    1  UNL1        0.0002
     25 C          24.7982   37.3372   30.8556 C.ar    1  UNL1        0.0064
     26 O          22.4247   40.2832   27.7690 O.3     1  UNL1       -0.4411
     27 C          22.3807   41.3885   28.5378 C.2     1  UNL1        0.3413
     28 O          21.5440   41.4868   29.4129 O.2     1  UNL1       -0.2449
     29 C          23.3462   42.4837   28.3126 C.ar    1  UNL1        0.0756
     30 C          24.4553   42.2825   27.4886 C.ar    1  UNL1        0.0064
     31 C          25.3493   43.3115   27.2773 C.ar    1  UNL1        0.0002
     32 C          25.1559   44.5369   27.8902 C.ar    1  UNL1        0.0000
     33 C          24.0623   44.7412   28.7130 C.ar    1  UNL1        0.0002
     34 C          23.1570   43.7229   28.9276 C.ar    1  UNL1        0.0064
@<TRIPOS>BOND
     1    11    16   ar
     2    11    12   ar
     3    12    13   ar
     4    13    14   ar
     5    14    15   ar
     6    14     9    1
     7    15    16   ar
     8     9    10    2
     9     9     8    1
    10     8     7    1
    11     7     1    1
    12     1     6    1
    13     1     2    1
    14     2     3    1
    15     2    26    1
    16     3     4    1
    17     3    17    1
    18     4     5    2
    19     5     6    1
    20    17    18    1
    21    18    19    2
    22    18    20    1
    23    20    25   ar
    24    20    21   ar
    25    21    22   ar
    26    22    23   ar
    27    23    24   ar
    28    24    25   ar
    29    26    27    1
    30    27    28    2
    31    27    29    1
    32    29    34   ar
    33    29    30   ar
    34    30    31   ar
    35    31    32   ar
    36    32    33   ar
    37    33    34   ar
@<TRIPOS>MOLECULE
ZINC16631327
 31 33 0 0 0
SMALL
GASTEIGER

@<TRIPOS>ATOM
      1 C          14.9234   38.7749   30.3690 C.3     1  UNL1        0.0624
      2 N          17.9711   39.2576   32.5906 N.ar    1  UNL1       -0.2931
      3 C          18.9591   39.0580   31.6474 C.ar    1  UNL1        0.0801
      4 C          20.3013   39.1385   32.0072 C.ar    1  UNL1        0.0188
      5 C          21.2785   38.9370   31.0575 C.ar    1  UNL1        0.0016
      6 C          20.9354   38.6538   29.7416 C.ar    1  UNL1        0.0016
      7 C          19.6268   38.5701   29.3663 C.ar    1  UNL1        0.0206
      8 C          18.6113   38.7711   30.3142 C.ar    1  UNL1        0.0969
      9 N          17.3184   38.6894   29.9462 N.ar    1  UNL1       -0.2434
     10 C          16.3612   38.8724   30.8099 C.ar    1  UNL1        0.1154
     11 C          16.6773   39.1792   32.2091 C.ar    1  UNL1        0.2745
     12 O          15.7845   39.3563   33.0182 O.2     1  UNL1       -0.2657
     13 C          18.3198   39.5570   33.9816 C.3     1  UNL1        0.1091
     14 C          18.2769   41.0701   34.2038 C.3     1  UNL1        0.0246
     15 C          20.4380   40.4709   35.3053 C.3     1  UNL1        0.0001
     16 C          19.2637   41.4515   35.3093 C.3     1  UNL1        0.0020
     17 C          14.8446   37.9938   29.0557 C.3     1  UNL1        0.1160
     18 C          13.3998   37.7572   28.6980 C.2     1  UNL1        0.3178
     19 O          12.5788   37.6028   29.5708 O.2     1  UNL1       -0.2501
     20 O          13.0251   37.7181   27.4096 O.3     1  UNL1       -0.4399
     21 C          11.6459   38.0621   27.1135 C.3     1  UNL1        0.2766
     22 C          11.2509   37.4591   25.7901 C.2     1  UNL1        0.2170
     23 O          11.0429   36.2674   25.7047 O.2     1  UNL1       -0.2874
     24 C          11.1234   38.3150   24.6006 C.ar    1  UNL1        0.0393
     25 C          10.4783   37.8353   23.4555 C.ar    1  UNL1        0.0039
     26 C          10.3563   38.6448   22.3469 C.ar    1  UNL1        0.0123
     27 C          10.8821   39.9267   22.3593 C.ar    1  UNL1        0.0682
     28 C          11.5282   40.4071   23.4880 C.ar    1  UNL1        0.0683
     29 C          11.6516   39.6101   24.6072 C.ar    1  UNL1        0.0152
     30 CL         12.1827   42.0150   23.4932 Cl      1  UNL1       -0.0814
     31 CL         10.7304   40.9363   20.9551 Cl      1  UNL1       -0.0814
@<TRIPOS>BOND
     1    15    16    1
     2    16    14    1
     3    14    13    1
     4    13     2    1
     5     2    11   ar
     6     2     3   ar
     7     3     8   ar
     8     3     4   ar
     9     4     5   ar
    10     5     6   ar
    11     6     7   ar
    12     7     8   ar
    13     8     9   ar
    14     9    10   ar
    15    10    11   ar
    16    10     1    1
    17    11    12    2
    18     1    17    1
    19    17    18    1
    20    18    19    2
    21    18    20    1
    22    20    21    1
    23    21    22    1
    24    22    23    2
    25    22    24    1
    26    24    29   ar
    27    24    25   ar
    28    25    26   ar
    29    26    27   ar
    30    27    28   ar
    31    27    31    1
    32    28    29   ar
    33    28    30    1
@<TRIPOS>MOLECULE
ZINC29138055
 34 37 0 0 0
SMALL
GASTEIGER

@<TRIPOS>ATOM
      1 C          24.5281   37.5878   29.4934 C.ar    1  UNL1        0.0387
      2 C          24.7595   36.6159   30.4494 C.ar    1  UNL1        0.1019
      3 N          25.9290   36.9002   31.0503 N.ar    1  UNL1       -0.2282
      4 N          26.4742   38.0605   30.4936 N.ar    1  UNL1       -0.1651
      5 C          25.6724   38.5053   29.5521 C.ar    1  UNL1        0.1028
      6 C          25.8820   39.7076   28.7116 C.ar    1  UNL1        0.0226
      7 C          25.9428   39.5876   27.3236 C.ar    1  UNL1        0.0049
      8 C          26.1375   40.7076   26.5418 C.ar    1  UNL1        0.0401
      9 C          26.2726   41.9547   27.1335 C.ar    1  UNL1        0.1724
     10 C          26.2122   42.0809   28.5191 C.ar    1  UNL1        0.1724
     11 C          26.0129   40.9618   29.3070 C.ar    1  UNL1        0.0416
     12 O          26.3445   43.3048   29.0970 O.3     1  UNL1       -0.4684
     13 C          25.1418   43.9748   29.4801 C.3     1  UNL1        0.2526
     14 O          26.4638   43.0559   26.3594 O.3     1  UNL1       -0.4684
     15 C          26.7565   42.8352   24.9782 C.3     1  UNL1        0.2526
     16 C          26.5118   36.1477   32.0778 C.ar    1  UNL1        0.0828
     17 C          27.8160   35.6880   31.9500 C.ar    1  UNL1        0.0191
     18 C          28.3891   34.9500   32.9669 C.ar    1  UNL1        0.0015
     19 C          27.6625   34.6599   34.1071 C.ar    1  UNL1        0.0001
     20 C          26.3619   35.1121   34.2353 C.ar    1  UNL1        0.0015
     21 C          25.7846   35.8547   33.2240 C.ar    1  UNL1        0.0191
     22 C          22.1531   37.2722   29.0170 C.2     1  UNL1        0.0820
     23 C          23.3721   37.6800   28.5950 C.2     1  UNL1        0.0098
     24 C          21.0380   37.3611   28.1504 C.2     1  UNL1        0.3419
     25 O          20.4694   36.3493   27.7848 O.2     1  UNL1       -0.2449
     26 O          20.6018   38.5683   27.7337 O.3     1  UNL1       -0.4350
     27 C          20.5699   39.6169   28.7040 C.3     1  UNL1        0.2956
     28 C          19.2097   38.8030   31.9252 C.ar    1  UNL1        0.1806
     29 N          20.1175   39.4544   31.1765 N.ar    1  UNL1       -0.1917
     30 C          19.8399   39.1415   29.9337 C.ar    1  UNL1        0.2810
     31 O          18.7823   38.3251   29.9657 O.2     1  UNL1       -0.3334
     32 N          18.4407   38.1396   31.1146 N.ar    1  UNL1       -0.0605
     33 C          20.4190   39.3468   34.0208 C.3     1  UNL1        0.0085
     34 C          19.1041   38.8360   33.4281 C.3     1  UNL1        0.0692
@<TRIPOS>BOND
     1    33    34    1
     2    34    28    1
     3    28    32   ar
     4    28    29   ar
     5    29    30   ar
     6    30    31   ar
     7    30    27    1
     8    31    32   ar
     9    27    26    1
    10    26    24    1
    11    24    25    2
    12    24    22    1
    13    22    23    2
    14    23     1    1
    15     1     5   ar
    16     1     2   ar
    17     2     3   ar
    18     3     4   ar
    19     3    16    1
    20     4     5   ar
    21     5     6    1
    22     6    11   ar
    23     6     7   ar
    24     7     8   ar
    25     8     9   ar
    26     9    10   ar
    27     9    14    1
    28    10    11   ar
    29    10    12    1
    30    12    13    1
    31    14    15    1
    32    16    21   ar
    33    16    17   ar
    34    17    18   ar
    35    18    19   ar
    36    19    20   ar
    37    20    21   ar
@<TRIPOS>MOLECULE
ZINC24139458
 33 35 0 0 0
SMALL
GASTEIGER

@<TRIPOS>ATOM
      1 C          24.3087   40.2874   27.7581 C.3     1  UNL1        0.0062
      2 C          24.6224   39.6191   26.4343 C.2     1  UNL1        0.2148
      3 O          23.9060   39.5551   25.4583 O.2     1  UNL1       -0.2759
      4 N          25.8630   39.1099   26.5682 N.am    1  UNL1       -0.2374
      5 C          26.3713   39.3610   27.7801 C.2     1  UNL1        0.1382
      6 O          27.4763   39.0019   28.1369 O.2     1  UNL1       -0.2967
      7 N          25.5227   40.0554   28.5595 N.am    1  UNL1       -0.6092
      8 C          23.1127   39.6407   28.4082 C.ar    1  UNL1       -0.0331
      9 C          21.9384   40.3545   28.5590 C.ar    1  UNL1       -0.0031
     10 C          20.8410   39.7625   29.1550 C.ar    1  UNL1        0.0293
     11 C          20.9181   38.4540   29.6012 C.ar    1  UNL1        0.1401
     12 C          22.0947   37.7401   29.4496 C.ar    1  UNL1        0.0293
     13 C          23.1907   38.3341   28.8532 C.ar    1  UNL1       -0.0031
     14 F          19.8460   37.8745   30.1844 F       1  UNL1       -0.2042
     15 C          24.0694   41.7862   27.5649 C.3     1  UNL1       -0.0074
     16 C          24.9129   42.5712   28.5716 C.3     1  UNL1       -0.0008
     17 C          25.0308   44.7207   29.8396 C.3     1  UNL1       -0.0000
     18 C          24.1005   43.7522   29.1065 C.3     1  UNL1       -0.0000
     19 C          26.5676   38.3719   25.5170 C.3     1  UNL1        0.1843
     20 C          26.2811   36.8992   25.6588 C.2     1  UNL1        0.2465
     21 O          25.1442   36.4898   25.5547 O.2     1  UNL1       -0.2730
     22 N          27.2881   36.0370   25.9015 N.am    1  UNL1       -0.2740
     23 C          28.6615   36.5316   26.0274 C.3     1  UNL1        0.0938
     24 C          29.5590   35.8057   25.0231 C.3     1  UNL1        0.0215
     25 C          29.2307   36.2837   23.6073 C.3     1  UNL1        0.0018
     26 C          27.0096   34.6054   26.0394 C.3     1  UNL1        0.1202
     27 C          26.9696   34.2400   27.5009 C.ar    1  UNL1       -0.0024
     28 C          27.1105   32.9203   27.8874 C.ar    1  UNL1       -0.0029
     29 C          27.0787   32.5855   29.2283 C.ar    1  UNL1       -0.0045
     30 C          26.8955   33.5692   30.1820 C.ar    1  UNL1       -0.0219
     31 C          26.7493   34.8884   29.7952 C.ar    1  UNL1       -0.0045
     32 C          26.7864   35.2237   28.4546 C.ar    1  UNL1       -0.0029
     33 C          26.8546   33.2036   31.6434 C.3     1  UNL1        0.0310
@<TRIPOS>UNITY_ATOM_ATTR
7 1
charge -1
@<TRIPOS>BOND
     1    17    18    1
     2    18    16    1
     3    16    15    1
     4    15     1    1
     5     1     7    1
     6     1     2    1
     7     1     8    1
     8     2     3    2
     9     2     4   am
    10     4     5   am
    11     4    19    1
    12     5     6    2
    13     5     7    1
    14    19    20    1
    15    20    21    2
    16    20    22   am
    17    22    23    1
    18    22    26    1
    19    23    24    1
    20    24    25    1
    21    26    27    1
    22    27    32   ar
    23    27    28   ar
    24    28    29   ar
    25    29    30   ar
    26    30    31   ar
    27    30    33    1
    28    31    32   ar
    29     8    13   ar
    30     8     9   ar
    31     9    10   ar
    32    10    11   ar
    33    11    12   ar
    34    11    14    1
    35    12    13   ar
@<TRIPOS>MOLECULE
ZINC01281795
 33 36 0 0 0
SMALL
GASTEIGER

@<TRIPOS>ATOM
      1 C          23.3955   37.9061   30.1634 C.3     1  UNL1        0.0320
      2 C          23.4453   38.1199   28.6725 C.ar    1  UNL1       -0.0030
      3 C          24.6130   38.5945   28.0722 C.ar    1  UNL1        0.0768
      4 C          24.5581   38.7680   26.6701 C.ar    1  UNL1        0.1169
      5 N          25.5978   39.2177   25.9793 N.ar    1  UNL1       -0.2185
      6 C          26.7259   39.5223   26.5610 C.ar    1  UNL1        0.1817
      7 N          26.8986   39.3976   27.8999 N.ar    1  UNL1       -0.2672
      8 C          25.9079   38.9505   28.6962 C.ar    1  UNL1        0.2641
      9 O          26.0733   38.8417   29.8982 O.2     1  UNL1       -0.2669
     10 S          22.9069   38.2611   26.2610 S.2     1  UNL1       -0.0617
     11 C          22.3501   37.8458   27.9051 C.ar    1  UNL1        0.1027
     12 C          21.0414   37.3420   28.3269 C.2     1  UNL1        0.3470
     13 O          20.8665   36.1467   28.4681 O.2     1  UNL1       -0.2443
     14 O          20.0313   38.2042   28.5641 O.3     1  UNL1       -0.4447
     15 C          20.0981   38.9760   29.7921 C.3     1  UNL1        0.2134
     16 C          18.8815   38.6554   30.6628 C.3     1  UNL1        0.0738
     17 C          19.1295   39.1366   32.0692 C.ar    1  UNL1       -0.0184
     18 C          20.4231   39.3387   32.5126 C.ar    1  UNL1       -0.0041
     19 C          20.6503   39.7847   33.8012 C.ar    1  UNL1       -0.0003
     20 C          19.5843   40.0191   34.6496 C.ar    1  UNL1       -0.0000
     21 C          18.2909   39.8116   34.2079 C.ar    1  UNL1       -0.0003
     22 C          18.0635   39.3706   32.9177 C.ar    1  UNL1       -0.0041
     23 C          28.1893   39.7559   28.4931 C.3     1  UNL1        0.2201
     24 C          28.3803   41.2488   28.4164 C.2     1  UNL1        0.3408
     25 O          29.3492   41.7060   27.8577 O.2     1  UNL1       -0.2479
     26 O          27.4740   42.0706   28.9687 O.3     1  UNL1       -0.4422
     27 C          26.9052   43.0958   28.1122 C.3     1  UNL1        0.2351
     28 C          25.4233   43.1973   28.3663 C.ar    1  UNL1        0.0213
     29 C          24.9070   44.3050   29.0122 C.ar    1  UNL1       -0.0007
     30 C          23.5471   44.4004   29.2409 C.ar    1  UNL1       -0.0002
     31 C          22.7045   43.3833   28.8328 C.ar    1  UNL1       -0.0000
     32 C          23.2215   42.2728   28.1920 C.ar    1  UNL1       -0.0002
     33 C          24.5808   42.1800   27.9586 C.ar    1  UNL1       -0.0007
@<TRIPOS>BOND
     1     1     2    1
     2     2    11   ar
     3     2     3   ar
     4     3     8   ar
     5     3     4   ar
     6     4     5   ar
     7     4    10   ar
     8     5     6   ar
     9     6     7   ar
    10     7     8   ar
    11     7    23    1
    12     8     9    2
    13    23    24    1
    14    24    25    2
    15    24    26    1
    16    26    27    1
    17    27    28    1
    18    28    33   ar
    19    28    29   ar
    20    29    30   ar
    21    30    31   ar
    22    31    32   ar
    23    32    33   ar
    24    10    11   ar
    25    11    12    1
    26    12    13    2
    27    12    14    1
    28    14    15    1
    29    15    16    1
    30    16    17    1
    31    17    22   ar
    32    17    18   ar
    33    18    19   ar
    34    19    20   ar
    35    20    21   ar
    36    21    22   ar
@<TRIPOS>MOLECULE
ZINC14674533
 34 38 0 0 0
SMALL
GASTEIGER

@<TRIPOS>ATOM
      1 C          23.5273   38.5231   27.8650 C.ar    1  UNL1        0.0746
      2 C          24.5462   37.6423   28.4371 C.ar    1  UNL1        0.0236
      3 C          25.6440   37.2079   27.6883 C.ar    1  UNL1        0.0017
      4 C          26.5696   36.3874   28.2633 C.ar    1  UNL1        0.0001
      5 C          26.4339   35.9774   29.5877 C.ar    1  UNL1        0.0015
      6 C          25.3777   36.3822   30.3445 C.ar    1  UNL1        0.0191
      7 C          24.4019   37.2294   29.7857 C.ar    1  UNL1        0.0814
      8 N          23.3582   37.6417   30.5009 N.ar    1  UNL1       -0.2460
      9 C          22.4161   38.4411   30.0104 C.ar    1  UNL1        0.0735
     10 C          22.4740   38.9024   28.6846 C.ar    1  UNL1        0.0018
     11 C          21.2846   39.7860   28.3996 C.3     1  UNL1        0.0328
     12 C          20.4638   39.8339   29.6951 C.3     1  UNL1        0.0326
     13 C          21.2140   38.9732   30.6808 C.2     1  UNL1       -0.0045
     14 C          20.8495   38.7315   31.9526 C.2     1  UNL1       -0.0027
     15 C          19.6972   39.4391   32.5352 C.ar    1  UNL1        0.0030
     16 C          19.9004   40.4619   33.4668 C.ar    1  UNL1        0.0033
     17 C          18.8203   41.1259   34.0068 C.ar    1  UNL1        0.0402
     18 C          17.5287   40.7762   33.6377 C.ar    1  UNL1        0.1764
     19 C          17.3183   39.7533   32.7127 C.ar    1  UNL1        0.1764
     20 C          18.3964   39.0867   32.1629 C.ar    1  UNL1        0.0402
     21 O          15.9741   39.6070   32.5232 O.3     1  UNL1       -0.4346
     22 C          15.3812   40.8184   33.0272 C.3     1  UNL1        0.4294
     23 O          16.3161   41.2680   34.0254 O.3     1  UNL1       -0.4346
     24 C          23.6167   38.9909   26.4660 C.2     1  UNL1        0.3415
     25 O          23.4957   38.1999   25.5522 O.2     1  UNL1       -0.2449
     26 O          23.8324   40.2947   26.2042 O.3     1  UNL1       -0.4331
     27 C          25.0308   40.8906   26.7673 C.3     1  UNL1        0.3170
     28 C          25.1973   42.2883   26.2292 C.2     1  UNL1        0.3621
     29 O          25.1877   42.4816   25.0365 O.2     1  UNL1       -0.2459
     30 O          25.3562   43.3186   27.0748 O.3     1  UNL1       -0.4459
     31 C          25.6219   42.9952   28.4651 C.3     1  UNL1        0.2086
     32 C          24.9049   44.0004   29.3686 C.3     1  UNL1        0.0474
     33 C          22.5180   43.3819   28.9654 C.3     1  UNL1        0.0001
     34 C          23.5958   44.4368   28.7078 C.3     1  UNL1        0.0038
@<TRIPOS>BOND
     1    33    34    1
     2    34    32    1
     3    32    31    1
     4    31    30    1
     5    30    28    1
     6    28    29    2
     7    28    27    1
     8    27    26    1
     9    26    24    1
    10    24    25    2
    11    24     1    1
    12     1    10   ar
    13     1     2   ar
    14     2     7   ar
    15     2     3   ar
    16     3     4   ar
    17     4     5   ar
    18     5     6   ar
    19     6     7   ar
    20     7     8   ar
    21     8     9   ar
    22     9    13    1
    23     9    10   ar
    24    10    11    1
    25    11    12    1
    26    12    13    1
    27    13    14    2
    28    14    15    1
    29    15    20   ar
    30    15    16   ar
    31    16    17   ar
    32    17    18   ar
    33    18    23    1
    34    18    19   ar
    35    19    20   ar
    36    19    21    1
    37    21    22    1
    38    22    23    1
@<TRIPOS>MOLECULE
ZINC02298724
 34 37 0 0 0
SMALL
GASTEIGER

@<TRIPOS>ATOM
      1 C          25.6373   37.3612   28.6869 C.ar    1  UNL1        0.0120
      2 C          26.2722   36.1832   28.9603 C.ar    1  UNL1        0.0018
      3 C          26.7231   35.3777   27.9120 C.ar    1  UNL1        0.0348
      4 C          27.4047   34.0998   28.1774 C.ar    1  UNL1        0.0094
      5 C          27.8290   33.3566   27.0922 C.ar    1  UNL1        0.0824
      6 C          27.5996   33.8369   25.7918 C.ar    1  UNL1        0.3459
      7 O          27.9770   33.1751   24.8408 O.2     1  UNL1       -0.2445
      8 O          26.9760   35.0042   25.5681 O.2     1  UNL1       -0.4209
      9 C          26.5344   35.7827   26.5792 C.ar    1  UNL1        0.1517
     10 C          25.8928   36.9841   26.3180 C.ar    1  UNL1        0.0741
     11 C          25.4464   37.7690   27.3689 C.ar    1  UNL1        0.1381
     12 C          27.6288   33.6270   29.5613 C.ar    1  UNL1        0.0003
     13 C          28.6745   34.1533   30.3211 C.ar    1  UNL1        0.0000
     14 C          28.8747   33.7120   31.6127 C.ar    1  UNL1        0.0000
     15 C          28.0486   32.7413   32.1511 C.ar    1  UNL1        0.0000
     16 C          27.0133   32.2116   31.4014 C.ar    1  UNL1        0.0000
     17 C          26.7988   32.6485   30.1106 C.ar    1  UNL1        0.0000
     18 C          25.1463   38.2277   29.8178 C.3     1  UNL1        0.0294
     19 C          24.0160   37.5091   30.5572 C.3     1  UNL1        0.0048
     20 C          24.4906   37.1184   31.9583 C.3     1  UNL1        0.0003
     21 C          24.9037   35.6452   31.9645 C.3     1  UNL1        0.0000
     22 C          26.7730   36.2586   33.5046 C.3     1  UNL1        0.0000
     23 C          25.5890   35.3133   33.2916 C.3     1  UNL1        0.0000
     24 O          24.8183   38.9448   27.1119 O.3     1  UNL1       -0.4709
     25 C          23.5679   38.8756   26.4236 C.3     1  UNL1        0.2320
     26 C          22.4481   38.7646   27.4261 C.ar    1  UNL1        0.0213
     27 C          22.0918   39.8612   28.1885 C.ar    1  UNL1        0.0010
     28 C          21.0617   39.7606   29.1048 C.ar    1  UNL1        0.0239
     29 C          20.3944   38.5607   29.2657 C.ar    1  UNL1        0.1429
     30 C          20.7540   37.4627   28.5066 C.ar    1  UNL1        0.0239
     31 C          21.7811   37.5646   27.5872 C.ar    1  UNL1        0.0010
     32 N          19.2946   38.4516   30.2502 N.pl3   1  UNL1        0.0577
     33 O          18.1370   38.5454   29.8832 O.2     1  UNL1       -0.1261
     34 O          19.5472   38.2681   31.4276 O.2     1  UNL1       -0.1261
@<TRIPOS>BOND
     1    22    23    1
     2    23    21    1
     3    21    20    1
     4    20    19    1
     5    19    18    1
     6    18     1    1
     7     1    11   ar
     8     1     2   ar
     9     2     3   ar
    10     3     9   ar
    11     3     4   ar
    12     4     5   ar
    13     4    12    1
    14     5     6   ar
    15     6     7    2
    16     6     8   ar
    17     8     9   ar
    18     9    10   ar
    19    10    11   ar
    20    11    24    1
    21    24    25    1
    22    25    26    1
    23    26    31   ar
    24    26    27   ar
    25    27    28   ar
    26    28    29   ar
    27    29    30   ar
    28    29    32    1
    29    30    31   ar
    30    32    33    2
    31    32    34    2
    32    12    17   ar
    33    12    13   ar
    34    13    14   ar
    35    14    15   ar
    36    15    16   ar
    37    16    17   ar
@<TRIPOS>MOLECULE
ZINC14873336
 32 33 0 0 0
SMALL
GASTEIGER

@<TRIPOS>ATOM
      1 N          27.1734   34.3433   31.2532 N.ar    1  UNL1       -0.2888
      2 C          26.3294   35.2751   30.8435 C.ar    1  UNL1        0.2673
      3 O          26.2319   35.5734   29.6674 O.2     1  UNL1       -0.2664
      4 C          25.5150   35.9398   31.8782 C.ar    1  UNL1        0.0869
      5 C          24.5838   36.9200   31.7454 C.2     1  UNL1        0.0115
      6 S          26.0783   35.1017   33.3526 S.2     1  UNL1       -0.0636
      7 C          27.2664   34.0146   32.5818 C.ar    1  UNL1        0.1123
      8 C          28.0900   33.0606   33.1849 C.2     1  UNL1        0.1584
      9 C          24.4091   37.5964   30.4543 C.ar    1  UNL1        0.0069
     10 C          23.3300   37.2619   29.6268 C.ar    1  UNL1        0.0403
     11 C          23.1694   37.9007   28.4122 C.ar    1  UNL1        0.1754
     12 C          24.0792   38.8756   28.0102 C.ar    1  UNL1        0.2061
     13 C          25.1538   39.2112   28.8301 C.ar    1  UNL1        0.1754
     14 C          25.3243   38.5739   30.0442 C.ar    1  UNL1        0.0403
     15 O          26.0396   40.1635   28.4329 O.3     1  UNL1       -0.4683
     16 C          26.2234   41.2820   29.3030 C.3     1  UNL1        0.2526
     17 O          23.9177   39.5016   26.8144 O.3     1  UNL1       -0.4654
     18 C          24.5275   38.8916   25.6751 C.3     1  UNL1        0.2528
     19 O          22.1218   37.5766   27.6078 O.3     1  UNL1       -0.4683
     20 C          20.9608   37.0355   28.2412 C.3     1  UNL1        0.2526
     21 C          27.9683   32.7931   34.5864 C.1     1  UNL1        0.1129
     22 N          27.8718   32.5807   35.6982 N.1     1  UNL1       -0.1901
     23 C          29.0558   32.3505   32.4016 C.1     1  UNL1        0.1129
     24 N          29.8219   31.7871   31.7802 N.1     1  UNL1       -0.1901
     25 C          28.0146   33.6486   30.2753 C.3     1  UNL1        0.1095
     26 C          27.1287   32.8550   29.3129 C.3     1  UNL1        0.0227
     27 C          27.8150   32.7600   27.9487 C.3     1  UNL1        0.0019
     28 C          27.0379   33.5935   26.9278 C.3     1  UNL1        0.0001
     29 C          26.9036   31.4478   29.8697 C.3     1  UNL1        0.0019
     30 C          26.9643   30.4317   28.7274 C.3     1  UNL1        0.0001
     31 C          25.9301   29.1367   30.5972 C.3     1  UNL1        0.0000
     32 C          26.1030   29.2170   29.0791 C.3     1  UNL1        0.0000
@<TRIPOS>BOND
     1    31    32    1
     2    32    30    1
     3    30    29    1
     4    29    26    1
     5    26    27    1
     6    26    25    1
     7    27    28    1
     8    25     1    1
     9     1     7   ar
    10     1     2   ar
    11     2     3    2
    12     2     4   ar
    13     4     5    2
    14     4     6   ar
    15     5     9    1
    16     9    14   ar
    17     9    10   ar
    18    10    11   ar
    19    11    12   ar
    20    11    19    1
    21    12    13   ar
    22    12    17    1
    23    13    14   ar
    24    13    15    1
    25    15    16    1
    26    17    18    1
    27    19    20    1
    28     6     7   ar
    29     7     8    2
    30     8    21    1
    31     8    23    1
    32    21    22    3
    33    23    24    3
@<TRIPOS>MOLECULE
ZINC10785539
 32 34 0 0 0
SMALL
GASTEIGER

@<TRIPOS>ATOM
      1 N          23.4600   39.4624   28.5759 N.ar    1  UNL1       -0.2756
      2 C          24.7594   39.1010   28.6878 C.ar    1  UNL1        0.2637
      3 O          25.6199   39.6165   27.9980 O.2     1  UNL1       -0.2669
      4 C          25.0933   38.0670   29.6767 C.ar    1  UNL1        0.0739
      5 C          26.4025   37.6292   29.8713 C.ar    1  UNL1        0.0063
      6 C          26.6576   36.6606   30.8025 C.ar    1  UNL1        0.0003
      7 C          25.6275   36.1094   31.5538 C.ar    1  UNL1        0.0015
      8 C          24.3354   36.5192   31.3829 C.ar    1  UNL1        0.0193
      9 C          24.0423   37.5083   30.4390 C.ar    1  UNL1        0.0880
     10 N          22.7817   37.9423   30.2384 N.ar    1  UNL1       -0.2224
     11 C          22.5071   38.8693   29.3542 C.ar    1  UNL1        0.1739
     12 C          23.0719   40.4924   27.6091 C.3     1  UNL1        0.1136
     13 C          23.2633   41.8760   28.2337 C.3     1  UNL1        0.0567
     14 C          24.2245   42.6963   27.3710 C.3     1  UNL1        0.1442
     15 O          23.8367   44.0713   27.4017 O.3     1  UNL1       -0.3537
     16 C          24.9451   44.9401   29.3657 C.3     1  UNL1        0.0346
     17 C          23.6069   44.5813   28.7167 C.3     1  UNL1        0.1422
     18 S          20.8304   39.3750   29.1605 S.3     1  UNL1       -0.0689
     19 C          20.3573   39.5664   30.8972 C.3     1  UNL1        0.1340
     20 C          19.1529   38.7083   31.1871 C.2     1  UNL1        0.1872
     21 O          19.0826   37.5872   30.7297 O.2     1  UNL1       -0.2903
     22 C          18.0646   39.2295   32.0230 C.ar    1  UNL1        0.0694
     23 C          16.7334   39.0990   31.6090 C.ar    1  UNL1        0.0017
     24 C          15.7183   39.5901   32.3989 C.ar    1  UNL1       -0.0216
     25 C          16.0069   40.2136   33.6029 C.ar    1  UNL1       -0.0011
     26 C          17.3144   40.3501   34.0243 C.ar    1  UNL1        0.0369
     27 C          18.3513   39.8572   33.2462 C.ar    1  UNL1        0.1470
     28 C          14.2859   39.4486   31.9524 C.3     1  UNL1        0.0310
     29 O          19.6357   39.9854   33.6619 O.3     1  UNL1       -0.4235
     30 C          19.8628   39.9988   35.0726 C.3     1  UNL1        0.5087
     31 F          19.7755   38.6946   35.5713 F       1  UNL1       -0.1550
     32 F          21.1366   40.5142   35.3351 F       1  UNL1       -0.1550
@<TRIPOS>BOND
     1    16    17    1
     2    17    15    1
     3    15    14    1
     4    14    13    1
     5    13    12    1
     6    12     1    1
     7     1    11   ar
     8     1     2   ar
     9     2     3    2
    10     2     4   ar
    11     4     9   ar
    12     4     5   ar
    13     5     6   ar
    14     6     7   ar
    15     7     8   ar
    16     8     9   ar
    17     9    10   ar
    18    10    11   ar
    19    11    18    1
    20    18    19    1
    21    19    20    1
    22    20    21    2
    23    20    22    1
    24    22    27   ar
    25    22    23   ar
    26    23    24   ar
    27    24    25   ar
    28    24    28    1
    29    25    26   ar
    30    26    27   ar
    31    27    29    1
    32    29    30    1
    33    30    31    1
    34    30    32    1
@<TRIPOS>MOLECULE
ZINC28079158
 32 33 0 0 0
SMALL
GASTEIGER

@<TRIPOS>ATOM
      1 S          12.7059   37.2091   26.9155 S.O2    1  UNL1        0.0769
      2 O          12.8020   35.7923   26.9657 O.2     1  UNL1       -0.1497
      3 O          13.6643   38.0143   26.2428 O.2     1  UNL1       -0.1497
      4 C          12.6598   37.7703   28.5851 C.ar    1  UNL1        0.1256
      5 C          11.4628   37.7738   29.2795 C.ar    1  UNL1        0.0202
      6 C          11.4176   38.2126   30.5907 C.ar    1  UNL1        0.0016
      7 C          12.5675   38.6503   31.2150 C.ar    1  UNL1        0.0065
      8 C          13.7785   38.6495   30.5203 C.ar    1  UNL1        0.0770
      9 C          13.8180   38.1998   29.1988 C.ar    1  UNL1        0.0266
     10 C          15.0139   39.1161   31.1824 C.2     1  UNL1        0.3412
     11 O          15.9487   39.5115   30.5150 O.2     1  UNL1       -0.2449
     12 O          15.1038   39.1034   32.5266 O.3     1  UNL1       -0.4454
     13 C          15.5543   40.3253   33.1687 C.3     1  UNL1        0.2088
     14 C          16.7642   40.0200   34.0541 C.3     1  UNL1        0.0486
     15 C          18.0491   40.3657   33.2988 C.3     1  UNL1        0.0200
     16 C          18.9742   39.1471   33.2819 C.3     1  UNL1        0.1055
     17 C          18.9160   38.5053   31.9584 C.1     1  UNL1        0.0731
     18 N          18.8711   38.0100   30.9371 N.1     1  UNL1       -0.1959
     19 N          11.2352   37.5603   26.2402 N.pl3   1  UNL1       -0.1862
     20 C          10.9749   38.8470   25.7634 C.ar    1  UNL1        0.0691
     21 C          10.2578   39.7464   26.5424 C.ar    1  UNL1        0.0161
     22 C          10.0018   41.0175   26.0677 C.ar    1  UNL1        0.0013
     23 C          10.4585   41.3958   24.8183 C.ar    1  UNL1        0.0039
     24 C          11.1676   40.5014   24.0380 C.ar    1  UNL1        0.0727
     25 C          11.4320   39.2301   24.5090 C.ar    1  UNL1        0.0200
     26 C          11.6574   40.9158   22.6744 C.3     1  UNL1        0.4186
     27 F          11.3631   39.9098   21.7476 F       1  UNL1       -0.1659
     28 F          11.0228   42.1023   22.2917 F       1  UNL1       -0.1659
     29 F          13.0407   41.1198   22.7177 F       1  UNL1       -0.1659
     30 C          10.2071   36.5211   26.1429 C.3     1  UNL1        0.1419
     31 C           8.1250   37.2970   25.1309 C.2     1  UNL1       -0.0031
     32 C           9.3235   36.7984   24.9541 C.2     1  UNL1       -0.0029
@<TRIPOS>BOND
     1    31    32    2
     2    32    30    1
     3    30    19    1
     4    19    20    1
     5    19     1    1
     6    20    25   ar
     7    20    21   ar
     8    21    22   ar
     9    22    23   ar
    10    23    24   ar
    11    24    25   ar
    12    24    26    1
    13    26    27    1
    14    26    28    1
    15    26    29    1
    16     1     2    2
    17     1     3    2
    18     1     4    1
    19     4     9   ar
    20     4     5   ar
    21     5     6   ar
    22     6     7   ar
    23     7     8   ar
    24     8     9   ar
    25     8    10    1
    26    10    11    2
    27    10    12    1
    28    12    13    1
    29    13    14    1
    30    14    15    1
    31    15    16    1
    32    16    17    1
    33    17    18    3
@<TRIPOS>MOLECULE
ZINC25482629
 31 33 0 0 0
SMALL
GASTEIGER

@<TRIPOS>ATOM
      1 C          22.2338   37.8878   28.8622 C.ar    1  UNL1        0.2786
      2 N          21.2529   37.7177   28.0068 N.ar    1  UNL1       -0.1006
      3 N          20.1292   37.9313   28.5955 N.ar    1  UNL1       -0.1065
      4 C          20.3469   38.2461   29.8492 C.ar    1  UNL1        0.2506
      5 O          21.6837   38.2196   30.0461 O.2     1  UNL1       -0.4110
      6 C          19.3199   38.5651   30.8620 C.ar    1  UNL1        0.0614
      7 C          17.9816   38.6921   30.4848 C.ar    1  UNL1        0.0450
      8 C          17.0208   38.9853   31.4364 C.ar    1  UNL1        0.1754
      9 C          17.3890   39.1652   32.7659 C.ar    1  UNL1        0.2059
     10 C          18.7225   39.0443   33.1435 C.ar    1  UNL1        0.1754
     11 C          19.6865   38.7457   32.1970 C.ar    1  UNL1        0.0450
     12 O          19.0789   39.2204   34.4440 O.3     1  UNL1       -0.4723
     13 C          20.2228   40.0383   34.6982 C.3     1  UNL1        0.2057
     14 C          19.7680   41.4059   35.2118 C.3     1  UNL1        0.0512
     15 O          16.4432   39.4594   33.6985 O.3     1  UNL1       -0.4695
     16 C          16.3774   40.8133   34.1510 C.3     1  UNL1        0.2058
     17 C          15.8060   41.6955   33.0392 C.3     1  UNL1        0.0512
     18 O          15.7164   39.1041   31.0705 O.3     1  UNL1       -0.4723
     19 C          15.3511   38.5817   29.7917 C.3     1  UNL1        0.2057
     20 C          13.9321   38.0134   29.8593 C.3     1  UNL1        0.0512
     21 S          23.9539   37.7078   28.5256 S.3     1  UNL1       -0.0469
     22 C          24.5329   39.3691   28.9511 C.3     1  UNL1        0.1361
     23 C          24.0835   40.3439   27.8933 C.2     1  UNL1        0.1903
     24 O          23.7761   39.9427   26.7891 O.2     1  UNL1       -0.2899
     25 C          24.4068   44.3128   28.7023 C.ar    1  UNL1        0.0073
     26 C          23.1289   43.8449   28.6890 C.ar    1  UNL1        0.0028
     27 C          22.9038   42.5193   28.4265 C.ar    1  UNL1        0.0095
     28 C          24.0199   41.7241   28.1863 C.ar    1  UNL1        0.0647
     29 S          25.3494   42.9042   28.3384 S.2     1  UNL1       -0.0884
     30 C          24.5906   46.5925   27.7439 C.3     1  UNL1        0.0056
     31 C          24.8861   45.7175   28.9637 C.3     1  UNL1        0.0330
@<TRIPOS>BOND
     1    30    31    1
     2    31    25    1
     3    25    29   ar
     4    25    26   ar
     5    26    27   ar
     6    27    28   ar
     7    28    29   ar
     8    28    23    1
     9    23    24    2
    10    23    22    1
    11    22    21    1
    12    21     1    1
    13     1     5   ar
    14     1     2   ar
    15     2     3   ar
    16     3     4   ar
    17     4     5   ar
    18     4     6    1
    19     6    11   ar
    20     6     7   ar
    21     7     8   ar
    22     8     9   ar
    23     8    18    1
    24     9    10   ar
    25     9    15    1
    26    10    11   ar
    27    10    12    1
    28    12    13    1
    29    13    14    1
    30    15    16    1
    31    16    17    1
    32    18    19    1
    33    19    20    1
@<TRIPOS>MOLECULE
ZINC23047699
 32 34 0 0 0
SMALL
GASTEIGER

@<TRIPOS>ATOM
      1 N          15.3309   38.7252   29.9613 N.am    1  UNL1       -0.2757
      2 C          14.1499   38.0987   29.7906 C.2     1  UNL1        0.2711
      3 O          13.3845   37.9829   30.7242 O.2     1  UNL1       -0.2707
      4 H          15.9523   38.8191   29.2034 H       1  UNL1        0.1554
      5 C          16.9192   39.2615   31.8109 C.ar    1  UNL1        0.0962
      6 C          16.9926   39.8681   33.1276 C.ar    1  UNL1        0.0205
      7 C          15.8299   40.3455   33.6449 C.ar    1  UNL1        0.0374
      8 S          14.6383   39.9916   32.3701 S.2     1  UNL1       -0.0715
      9 C          15.6706   39.2371   31.2034 C.ar    1  UNL1        0.0871
     10 C          18.2667   39.9569   33.8708 C.ar    1  UNL1        0.0302
     11 C          19.0198   38.9511   34.4158 C.ar    1  UNL1        0.0070
     12 C          20.1874   39.2794   35.0715 C.ar    1  UNL1        0.0075
     13 C          20.5539   40.5829   35.1568 C.ar    1  UNL1        0.0354
     14 S          19.2290   41.4025   34.2853 S.2     1  UNL1       -0.0864
     15 C          18.1025   38.7070   31.1547 C.2     1  UNL1        0.3430
     16 O          18.0895   37.5620   30.7434 O.2     1  UNL1       -0.2448
     17 O          19.2086   39.4648   31.0053 O.3     1  UNL1       -0.4454
     18 C          20.7321   39.3793   29.1313 C.3     1  UNL1        0.0513
     19 C          20.3792   38.8133   30.5083 C.3     1  UNL1        0.2089
     20 C          13.7805   37.5419   28.4398 C.3     1  UNL1        0.2930
     21 O          12.3677   37.7686   28.1927 O.3     1  UNL1       -0.4353
     22 C          11.7808   37.0032   27.2524 C.2     1  UNL1        0.3417
     23 O          11.5538   35.8313   27.4779 O.2     1  UNL1       -0.2449
     24 C          11.4188   37.5874   25.9448 C.ar    1  UNL1        0.0756
     25 C          10.6426   36.8585   25.0416 C.ar    1  UNL1        0.0062
     26 C          10.3035   37.4123   23.8246 C.ar    1  UNL1       -0.0016
     27 C          10.7403   38.6828   23.4934 C.ar    1  UNL1        0.0073
     28 C          11.5147   39.4084   24.3813 C.ar    1  UNL1       -0.0016
     29 C          11.8563   38.8689   25.6040 C.ar    1  UNL1        0.0062
     30 C          10.3707   39.2790   22.1596 C.3     1  UNL1        0.1687
     31 O          11.4829   40.0106   21.6401 O.3     1  UNL1       -0.3463
     32 C          11.1159   41.1522   20.8631 C.3     1  UNL1        0.1746
@<TRIPOS>BOND
     1    18    19    1
     2    19    17    1
     3    17    15    1
     4    15    16    2
     5    15     5    1
     6     5     9   ar
     7     5     6   ar
     8     6     7   ar
     9     6    10    1
    10     7     8   ar
    11     8     9   ar
    12     9     1    1
    13     1     2   am
    14     2     3    2
    15     2    20    1
    16    20    21    1
    17    21    22    1
    18    22    23    2
    19    22    24    1
    20    24    29   ar
    21    24    25   ar
    22    25    26   ar
    23    26    27   ar
    24    27    28   ar
    25    27    30    1
    26    28    29   ar
    27    30    31    1
    28    31    32    1
    29    10    14   ar
    30    10    11   ar
    31    11    12   ar
    32    12    13   ar
    33    13    14   ar
    34     1     4    1
@<TRIPOS>MOLECULE
ZINC09381462
 33 35 0 0 0
SMALL
GASTEIGER

@<TRIPOS>ATOM
      1 C          25.9741   37.6482   28.6512 C.ar    1  UNL1        0.0854
      2 C          24.9216   38.5670   28.6397 C.ar    1  UNL1        0.0797
      3 C          25.1657   39.8181   27.9174 C.ar    1  UNL1        0.0386
      4 C          26.3986   39.9450   27.3349 C.ar    1  UNL1        0.0386
      5 S          27.2208   38.4235   27.7420 S.2     1  UNL1       -0.0715
      6 C          24.0604   40.8194   27.8871 C.ar    1  UNL1        0.1773
      7 N          22.9327   40.5603   28.4907 N.ar    1  UNL1       -0.1559
      8 N          22.7132   39.3666   29.1748 N.ar    1  UNL1       -0.1942
      9 C          23.6402   38.4033   29.2613 C.ar    1  UNL1        0.2820
     10 O          23.3921   37.3796   29.8727 O.2     1  UNL1       -0.2651
     11 C          21.4755   39.1658   29.7959 C.ar    1  UNL1        0.0861
     12 C          20.3541   38.8681   29.0320 C.ar    1  UNL1        0.0216
     13 C          19.1347   38.6656   29.6474 C.ar    1  UNL1        0.0312
     14 C          19.0270   38.7690   31.0243 C.ar    1  UNL1        0.1402
     15 C          20.1428   39.0709   31.7875 C.ar    1  UNL1        0.0312
     16 C          21.3651   39.2695   31.1767 C.ar    1  UNL1        0.0216
     17 F          17.8319   38.5755   31.6239 F       1  UNL1       -0.2042
     18 C          26.6044   36.2468   30.4547 C.2     1  UNL1        0.2260
     19 O          27.1087   37.2016   31.0069 O.2     1  UNL1       -0.2748
     20 N          26.0095   36.3988   29.2549 N.am    1  UNL1       -0.2788
     21 H          25.6001   35.6237   28.8067 H       1  UNL1        0.1553
     22 C          26.6428   34.8903   31.1102 C.3     1  UNL1        0.0768
     23 C          25.3017   34.6159   31.7934 C.3     1  UNL1        0.0091
     24 C          26.5317   34.9990   33.9341 C.3     1  UNL1        0.0000
     25 C          25.2627   35.3300   33.1459 C.3     1  UNL1        0.0005
     26 C          26.9037   33.8187   30.0497 C.3     1  UNL1        0.0091
     27 C          27.1786   32.4789   30.7355 C.3     1  UNL1        0.0005
     28 C          27.0564   31.3479   29.7124 C.3     1  UNL1        0.0000
     29 C          24.2414   42.0984   27.1770 C.2     1  UNL1        0.3609
     30 O          24.4732   42.1034   25.9841 O.2     1  UNL1       -0.2431
     31 O          24.1496   43.2622   27.8508 O.3     1  UNL1       -0.4444
     32 C          25.3569   43.7479   28.4948 C.3     1  UNL1        0.2089
     33 C          24.9809   44.5724   29.7276 C.3     1  UNL1        0.0513
@<TRIPOS>BOND
     1    24    25    1
     2    25    23    1
     3    23    22    1
     4    22    26    1
     5    22    18    1
     6    26    27    1
     7    27    28    1
     8    18    19    2
     9    18    20   am
    10    20     1    1
    11     1     5   ar
    12     1     2   ar
    13     2     9   ar
    14     2     3   ar
    15     3     4   ar
    16     3     6   ar
    17     4     5   ar
    18     6     7   ar
    19     6    29    1
    20     7     8   ar
    21     8     9   ar
    22     8    11    1
    23     9    10    2
    24    11    16   ar
    25    11    12   ar
    26    12    13   ar
    27    13    14   ar
    28    14    15   ar
    29    14    17    1
    30    15    16   ar
    31    29    30    2
    32    29    31    1
    33    31    32    1
    34    32    33    1
    35    20    21    1
@<TRIPOS>MOLECULE
ZINC31284541
 33 36 0 0 0
SMALL
GASTEIGER

@<TRIPOS>ATOM
      1 C          26.5181   45.5655   26.8845 C.3     1  UNL1        0.2770
      2 C          26.6058   44.3054   27.7063 C.2     1  UNL1        0.2181
      3 O          27.0589   44.3452   28.8314 O.2     1  UNL1       -0.2873
      4 C          26.3947   39.9463   25.0770 C.3     1  UNL1        0.0500
      5 C          26.0676   41.1091   25.9780 C.ar    1  UNL1        0.0372
      6 C          26.8672   42.1637   26.2095 C.ar    1  UNL1        0.0168
      7 C          26.1441   43.0330   27.1475 C.ar    1  UNL1        0.0512
      8 C          24.9389   42.4030   27.3944 C.ar    1  UNL1        0.0400
      9 N          24.9105   41.2600   26.6860 N.ar    1  UNL1       -0.3335
     10 C          23.8462   42.9090   28.3004 C.3     1  UNL1        0.0501
     11 C          23.7969   40.3082   26.6800 C.3     1  UNL1        0.1106
     12 C          23.9930   39.2867   27.8022 C.3     1  UNL1        0.0574
     13 C          22.7234   39.1739   28.6061 C.ar    1  UNL1        0.0092
     14 C          21.5621   39.8594   28.4685 C.ar    1  UNL1        0.0028
     15 C          20.5141   39.5816   29.3259 C.ar    1  UNL1        0.0072
     16 C          20.6806   38.6360   30.2827 C.ar    1  UNL1        0.0351
     17 S          22.3591   38.1040   29.9881 S.2     1  UNL1       -0.0907
     18 O          25.1280   45.9655   26.7584 O.3     1  UNL1       -0.4358
     19 C          24.6751   46.8867   27.6309 C.2     1  UNL1        0.3613
     20 O          24.7114   46.6627   28.8242 O.2     1  UNL1       -0.2431
     21 C          24.1342   48.1695   27.1364 C.ar    1  UNL1        0.1768
     22 C          24.9447   49.0197   26.3460 C.ar    1  UNL1        0.0324
     23 C          24.4107   50.1953   25.9073 C.ar    1  UNL1        0.0644
     24 C          23.0790   50.4932   26.2694 C.ar    1  UNL1        0.2805
     25 O          22.5605   51.5336   25.8999 O.2     1  UNL1       -0.2652
     26 N          22.3853   49.6219   27.0253 N.ar    1  UNL1       -0.1943
     27 N          22.8991   48.5161   27.4272 N.ar    1  UNL1       -0.1559
     28 C          21.0669   49.9273   27.3785 C.ar    1  UNL1        0.0860
     29 C          20.1359   50.2348   26.3943 C.ar    1  UNL1        0.0193
     30 C          18.8335   50.5299   26.7462 C.ar    1  UNL1        0.0015
     31 C          18.4587   50.5314   28.0774 C.ar    1  UNL1        0.0001
     32 C          19.3843   50.2313   29.0601 C.ar    1  UNL1        0.0015
     33 C          20.6868   49.9293   28.7148 C.ar    1  UNL1        0.0193
@<TRIPOS>BOND
     1     4     5    1
     2     5     9   ar
     3     5     6   ar
     4     6     7   ar
     5     7     8   ar
     6     7     2    1
     7     8     9   ar
     8     8    10    1
     9     9    11    1
    10    11    12    1
    11    12    13    1
    12    13    17   ar
    13    13    14   ar
    14    14    15   ar
    15    15    16   ar
    16    16    17   ar
    17     2     3    2
    18     2     1    1
    19     1    18    1
    20    18    19    1
    21    19    20    2
    22    19    21    1
    23    21    27   ar
    24    21    22   ar
    25    22    23   ar
    26    23    24   ar
    27    24    25    2
    28    24    26   ar
    29    26    27   ar
    30    26    28    1
    31    28    33   ar
    32    28    29   ar
    33    29    30   ar
    34    30    31   ar
    35    31    32   ar
    36    32    33   ar
@<TRIPOS>MOLECULE
ZINC10561235
 31 33 0 0 0
SMALL
GASTEIGER

@<TRIPOS>ATOM
      1 C          21.2045   38.1964   29.5541 C.2     1  UNL1        0.0068
      2 C          20.8688   38.5123   28.2841 C.2     1  UNL1        0.0819
      3 C          18.6737   39.3332   32.7671 C.ar    1  UNL1        0.1826
      4 C          18.1172   38.8660   31.5770 C.ar    1  UNL1        0.1731
      5 C          18.9368   38.4952   30.5295 C.ar    1  UNL1        0.0401
      6 C          20.3271   38.5895   30.6655 C.ar    1  UNL1        0.0043
      7 C          20.8790   39.0538   31.8648 C.ar    1  UNL1        0.0147
      8 C          20.0531   39.4274   32.9036 C.ar    1  UNL1        0.0946
      9 CL         20.7386   40.0100   34.3884 Cl      1  UNL1       -0.0790
     10 O          17.8649   39.6977   33.7957 O.3     1  UNL1       -0.4715
     11 C          17.5288   41.0830   33.8972 C.3     1  UNL1        0.2056
     12 C          15.2577   41.2866   32.8759 C.3     1  UNL1        0.0040
     13 C          16.0343   41.2247   34.1928 C.3     1  UNL1        0.0473
     14 O          16.7664   38.7751   31.4480 O.3     1  UNL1       -0.4724
     15 C          16.2443   38.7129   30.1193 C.3     1  UNL1        0.2057
     16 C          14.7152   38.7093   30.1718 C.3     1  UNL1        0.0512
     17 C          21.7154   38.1331   27.2119 C.2     1  UNL1        0.3418
     18 O          21.2462   37.5927   26.2283 O.2     1  UNL1       -0.2449
     19 O          23.0416   38.3718   27.2825 O.3     1  UNL1       -0.4387
     20 C          23.6403   39.0417   26.1713 C.3     1  UNL1        0.2544
     21 C          24.0279   40.4403   26.5773 C.ar    1  UNL1        0.1096
     22 C          25.1464   41.0419   26.0411 C.ar    1  UNL1        0.0796
     23 C          25.4893   42.3373   26.4293 C.ar    1  UNL1        0.2673
     24 O          26.4789   42.8749   25.9577 O.2     1  UNL1       -0.2665
     25 N          24.7168   43.0034   27.3386 N.ar    1  UNL1       -0.2572
     26 C          24.9233   44.2745   27.8181 C.ar    1  UNL1        0.0529
     27 C          24.0937   44.8171   28.7090 C.ar    1  UNL1        0.0515
     28 S          22.9071   43.5044   28.9507 S.2     1  UNL1       -0.0483
     29 C          23.6248   42.3319   27.8201 C.ar    1  UNL1        0.1812
     30 N          23.2967   41.1161   27.4599 N.ar    1  UNL1       -0.2225
     31 C          26.1076   45.0679   27.3290 C.3     1  UNL1        0.0511
@<TRIPOS>BOND
     1    12    13    1
     2    13    11    1
     3    11    10    1
     4    10     3    1
     5     3     8   ar
     6     3     4   ar
     7     4     5   ar
     8     4    14    1
     9     5     6   ar
    10     6     7   ar
    11     6     1    1
    12     7     8   ar
    13     8     9    1
    14     1     2    2
    15     2    17    1
    16    17    18    2
    17    17    19    1
    18    19    20    1
    19    20    21    1
    20    21    30   ar
    21    21    22   ar
    22    22    23   ar
    23    23    24    2
    24    23    25   ar
    25    25    29   ar
    26    25    26   ar
    27    26    27   ar
    28    26    31    1
    29    27    28   ar
    30    28    29   ar
    31    29    30   ar
    32    14    15    1
    33    15    16    1
@<TRIPOS>MOLECULE
ZINC28664126
 33 36 0 0 0
SMALL
GASTEIGER

@<TRIPOS>ATOM
      1 N          15.2537   38.7366   30.1708 N.am    1  UNL1       -0.2313
      2 C          14.8180   37.7044   29.4216 C.2     1  UNL1        0.2757
      3 O          15.5888   36.8296   29.0877 O.2     1  UNL1       -0.2704
      4 C          16.5858   38.7984   30.5607 C.ar    1  UNL1        0.1692
      5 N          17.6770   38.6953   29.8253 N.ar    1  UNL1       -0.2237
      6 C          18.8826   38.7789   30.3677 C.ar    1  UNL1        0.0897
      7 C          18.9994   38.9758   31.7155 C.ar    1  UNL1        0.0572
      8 S          17.2769   39.0465   32.1903 S.2     1  UNL1       -0.0506
      9 C          20.0943   38.6596   29.5208 C.ar    1  UNL1        0.0182
     10 C          20.7101   39.8035   29.0157 C.ar    1  UNL1        0.0015
     11 C          21.8404   39.6867   28.2326 C.ar    1  UNL1        0.0000
     12 C          22.3557   38.4369   27.9392 C.ar    1  UNL1        0.0000
     13 C          21.7458   37.2980   28.4335 C.ar    1  UNL1        0.0000
     14 C          20.6183   37.4029   29.2224 C.ar    1  UNL1        0.0015
     15 C          14.3226   39.7933   30.5740 C.3     1  UNL1        0.1265
     16 C          12.3001   39.3332   31.8621 C.2     1  UNL1       -0.0031
     17 C          13.6090   39.3797   31.8353 C.2     1  UNL1       -0.0043
     18 C          13.3731   37.6374   28.9986 C.3     1  UNL1        0.2933
     19 O          13.2697   36.9177   27.7417 O.3     1  UNL1       -0.4353
     20 C          12.1261   37.0678   27.0426 C.2     1  UNL1        0.3419
     21 O          11.2594   36.2174   27.1051 O.2     1  UNL1       -0.2449
     22 C          11.9282   38.2559   26.2076 C.2     1  UNL1        0.0835
     23 C          10.9358   38.2814   25.2965 C.2     1  UNL1        0.0273
     24 C          10.7369   39.4759   24.4570 C.ar    1  UNL1        0.1006
     25 C           9.9968   40.5669   24.9558 C.ar    1  UNL1        0.1179
     26 N           9.8111   41.6375   24.2213 N.ar    1  UNL1       -0.2407
     27 C          10.3270   41.6972   22.9875 C.ar    1  UNL1        0.0989
     28 C          10.1425   42.8331   22.1814 C.ar    1  UNL1        0.0206
     29 C          10.6781   42.8682   20.9305 C.ar    1  UNL1        0.0016
     30 C          11.4110   41.7916   20.4323 C.ar    1  UNL1        0.0016
     31 C          11.6110   40.6745   21.1821 C.ar    1  UNL1        0.0206
     32 C          11.0727   40.6004   22.4810 C.ar    1  UNL1        0.0989
     33 N          11.2591   39.5197   23.2407 N.ar    1  UNL1       -0.2423
@<TRIPOS>BOND
     1    16    17    2
     2    17    15    1
     3    15     1    1
     4     1     4    1
     5     1     2   am
     6     4     8   ar
     7     4     5   ar
     8     5     6   ar
     9     6     7   ar
    10     6     9    1
    11     7     8   ar
    12     9    14   ar
    13     9    10   ar
    14    10    11   ar
    15    11    12   ar
    16    12    13   ar
    17    13    14   ar
    18     2     3    2
    19     2    18    1
    20    18    19    1
    21    19    20    1
    22    20    21    2
    23    20    22    1
    24    22    23    2
    25    23    24    1
    26    24    33   ar
    27    24    25   ar
    28    25    26   ar
    29    26    27   ar
    30    27    32   ar
    31    27    28   ar
    32    28    29   ar
    33    29    30   ar
    34    30    31   ar
    35    31    32   ar
    36    32    33   ar
@<TRIPOS>MOLECULE
ZINC05004499
 33 36 0 0 0
SMALL
GASTEIGER

@<TRIPOS>ATOM
      1 C          12.4763   37.0850   27.7626 C.3     1  UNL1        0.0582
      2 C          11.1819   37.1439   28.6158 C.3     1  UNL1        0.0073
      3 C          11.6139   37.6438   30.0231 C.3     1  UNL1        0.0005
      4 C          12.8902   38.4387   29.6900 C.3     1  UNL1        0.0007
      5 C          13.6106   37.4701   28.7293 C.3     1  UNL1        0.0066
      6 C          14.8254   38.1201   28.1261 C.3     1  UNL1        0.0004
      7 C          15.6044   38.9446   29.1628 C.3     1  UNL1        0.0003
      8 C          15.2233   38.6112   30.5909 C.3     1  UNL1        0.0038
      9 C          13.7341   38.8617   30.8499 C.3     1  UNL1        0.0046
     10 C          13.3815   38.1495   32.1604 C.3     1  UNL1        0.0254
     11 C          14.2791   38.7109   33.2331 C.2     1  UNL1       -0.0345
     12 C          15.4214   39.2741   32.9893 C.2     1  UNL1       -0.0455
     13 C          16.0287   39.4084   31.6128 C.3     1  UNL1        0.0151
     14 C          16.1138   40.8878   31.2623 C.3     1  UNL1        0.0074
     15 C          15.7790   41.7377   32.4879 C.3     1  UNL1        0.0444
     16 C          16.5807   41.3181   33.7150 C.3     1  UNL1        0.1763
     17 C          16.2064   39.8906   34.1346 C.3     1  UNL1        0.0654
     18 C          17.4455   38.8245   31.6496 C.3     1  UNL1        0.0040
     19 C          14.0105   36.1591   29.4288 C.3     1  UNL1        0.0004
     20 C          12.3629   38.0255   26.5994 C.2     1  UNL1        0.1615
     21 O          13.3226   38.2362   25.8975 O.2     1  UNL1       -0.2955
     22 C          11.0511   38.7074   26.3069 C.3     1  UNL1        0.1737
     23 C          10.5973   38.3475   24.9157 C.2     1  UNL1        0.3246
     24 O          10.8039   37.2394   24.4805 O.2     1  UNL1       -0.2496
     25 O           9.9634   39.2579   24.1600 O.3     1  UNL1       -0.4482
     26 C           9.9006   41.6875   24.3133 C.3     1  UNL1        0.0513
     27 C          10.6946   40.4698   23.8359 C.3     1  UNL1        0.2086
     28 O          18.0010   41.3912   33.4276 O.3     1  UNL1       -0.4215
     29 C          18.8354   41.4479   34.4814 C.2     1  UNL1        0.5117
     30 O          18.4609   41.9397   35.5266 O.2     1  UNL1       -0.2028
     31 O          20.0847   40.9597   34.3772 O.3     1  UNL1       -0.4181
     32 C          20.4329   39.8490   35.2452 C.3     1  UNL1        0.2122
     33 C          19.6183   38.6163   34.8478 C.3     1  UNL1        0.0514
@<TRIPOS>BOND
     1    26    27    1
     2    27    25    1
     3    25    23    1
     4    23    24    2
     5    23    22    1
     6    22    20    1
     7    20    21    2
     8    20     1    1
     9     1     5    1
    10     1     2    1
    11     2     3    1
    12     3     4    1
    13     4     9    1
    14     4     5    1
    15     5     6    1
    16     5    19    1
    17     6     7    1
    18     7     8    1
    19     8    13    1
    20     8     9    1
    21     9    10    1
    22    10    11    1
    23    11    12    2
    24    12    17    1
    25    12    13    1
    26    13    14    1
    27    13    18    1
    28    14    15    1
    29    15    16    1
    30    16    17    1
    31    16    28    1
    32    28    29    1
    33    29    30    2
    34    29    31    1
    35    31    32    1
    36    32    33    1
@<TRIPOS>MOLECULE
ZINC25146526
 33 36 0 0 0
SMALL
GASTEIGER

@<TRIPOS>ATOM
      1 C          20.5015   38.7682   29.8091 C.ar    1  UNL1        0.0772
      2 C          20.5103   39.8904   28.9703 C.ar    1  UNL1        0.0080
      3 C          21.6378   40.2277   28.2783 C.ar    1  UNL1        0.0190
      4 C          22.7885   39.4586   28.4003 C.ar    1  UNL1        0.0795
      5 C          22.7980   38.3280   29.2374 C.ar    1  UNL1        0.0994
      6 C          21.6461   37.9856   29.9427 C.ar    1  UNL1        0.0271
      7 N          24.0403   37.7814   29.1578 N.ar    1  UNL1       -0.2211
      8 C          24.7794   38.4908   28.3410 C.ar    1  UNL1        0.1718
      9 N          24.0539   39.5407   27.8511 N.ar    1  UNL1       -0.3023
     10 C          19.2770   38.4139   30.5516 C.2     1  UNL1        0.3413
     11 O          18.2249   38.2789   29.9591 O.2     1  UNL1       -0.2449
     12 O          19.3253   38.2402   31.8869 O.3     1  UNL1       -0.4454
     13 C          20.6153   39.5229   33.5058 C.3     1  UNL1        0.0513
     14 C          19.3123   39.4374   32.7084 C.3     1  UNL1        0.2089
     15 C          24.5293   40.5623   26.9149 C.3     1  UNL1        0.1347
     16 C          24.8500   41.8260   27.6707 C.ar    1  UNL1        0.0027
     17 C          26.1117   42.0097   28.2058 C.ar    1  UNL1       -0.0022
     18 C          26.4088   43.1703   28.8952 C.ar    1  UNL1        0.0020
     19 C          25.4416   44.1440   29.0597 C.ar    1  UNL1        0.0296
     20 C          24.1765   43.9587   28.5289 C.ar    1  UNL1        0.1399
     21 C          23.8816   42.7979   27.8338 C.ar    1  UNL1        0.0272
     22 F          23.2302   44.9095   28.6894 F       1  UNL1       -0.2042
     23 S          26.4602   38.1470   27.9398 S.3     1  UNL1       -0.0725
     24 C          26.6925   36.6028   28.8550 C.3     1  UNL1        0.0913
     25 C          26.8074   35.4558   27.8844 C.ar    1  UNL1       -0.0109
     26 C          26.9814   34.1675   28.3581 C.ar    1  UNL1       -0.0034
     27 C          27.0874   33.1130   27.4752 C.ar    1  UNL1        0.0008
     28 C          27.0187   33.3481   26.1005 C.ar    1  UNL1        0.0140
     29 C          26.8422   34.6505   25.6293 C.ar    1  UNL1        0.0008
     30 C          26.7381   35.6958   26.5234 C.ar    1  UNL1       -0.0034
     31 C          27.1320   32.2238   25.1490 C.2     1  UNL1        0.0729
     32 O          27.4300   32.4360   23.9907 O.co2   1  UNL1       -0.5446
     33 O          26.9048   30.9630   25.5659 O.co2   1  UNL1       -0.5446
@<TRIPOS>UNITY_ATOM_ATTR
33 1
charge -1
@<TRIPOS>BOND
     1    13    14    1
     2    14    12    1
     3    12    10    1
     4    10    11    2
     5    10     1    1
     6     1     6   ar
     7     1     2   ar
     8     2     3   ar
     9     3     4   ar
    10     4     9   ar
    11     4     5   ar
    12     5     6   ar
    13     5     7   ar
    14     7     8   ar
    15     8     9   ar
    16     8    23    1
    17     9    15    1
    18    15    16    1
    19    16    21   ar
    20    16    17   ar
    21    17    18   ar
    22    18    19   ar
    23    19    20   ar
    24    20    21   ar
    25    20    22    1
    26    23    24    1
    27    24    25    1
    28    25    30   ar
    29    25    26   ar
    30    26    27   ar
    31    27    28   ar
    32    28    29   ar
    33    28    31    1
    34    29    30   ar
    35    31    32   ar
    36    31    33   ar
@<TRIPOS>MOLECULE
ZINC12775433
 32 34 0 0 0
SMALL
GASTEIGER

@<TRIPOS>ATOM
      1 C          13.7034   38.1517   30.0450 C.ar    1  UNL1        0.0991
      2 C          13.3828   38.4259   31.3803 C.ar    1  UNL1        0.0101
      3 C          12.0485   38.5411   31.7256 C.ar    1  UNL1        0.0209
      4 C          11.0761   38.3842   30.7529 C.ar    1  UNL1        0.0994
      5 N          11.3971   38.1314   29.4996 N.ar    1  UNL1       -0.2374
      6 C          12.6587   38.0056   29.1144 C.ar    1  UNL1        0.1133
      7 C          15.1077   38.0193   29.6228 C.2     1  UNL1        0.3435
      8 O          15.4567   37.0583   28.9658 O.2     1  UNL1       -0.2448
      9 O          16.0062   38.9639   29.9650 O.3     1  UNL1       -0.4394
     10 C          16.3454   39.9476   32.1667 C.3     1  UNL1        0.0578
     11 C          16.6964   38.7895   31.2305 C.3     1  UNL1        0.2471
     12 C          18.1843   38.7691   30.9925 C.ar    1  UNL1        0.2766
     13 N          18.7933   38.4232   29.8838 N.ar    1  UNL1       -0.1919
     14 C          20.1075   38.5593   30.1350 C.ar    1  UNL1        0.1797
     15 N          20.2286   38.9734   31.3607 N.ar    1  UNL1       -0.0605
     16 O          19.1352   39.1058   31.8691 O.2     1  UNL1       -0.3336
     17 C          21.2329   38.2829   29.1716 C.3     1  UNL1        0.0557
     18 C          20.9589   36.9733   28.4295 C.3     1  UNL1        0.0077
     19 C          21.3341   39.4290   28.1631 C.3     1  UNL1        0.0077
     20 C          22.5483   38.1657   29.9442 C.3     1  UNL1        0.0077
     21 S          13.0298   37.6609   27.4268 S.3     1  UNL1       -0.0861
     22 C          11.3567   37.6301   26.7370 C.3     1  UNL1        0.1321
     23 C          10.9572   36.1849   26.4324 C.3     1  UNL1        0.0220
     24 C          11.3222   38.4393   25.4662 C.ar    1  UNL1        0.2463
     25 N          11.0507   39.7179   25.3616 N.ar    1  UNL1       -0.1942
     26 C          11.1385   40.0005   24.0497 C.ar    1  UNL1        0.1797
     27 N          11.4531   38.8999   23.4347 N.ar    1  UNL1       -0.0606
     28 O          11.5633   37.9911   24.2305 O.2     1  UNL1       -0.3365
     29 C          10.9137   41.3466   23.4103 C.3     1  UNL1        0.0557
     30 C          10.7232   41.1696   21.9026 C.3     1  UNL1        0.0077
     31 C           9.6636   41.9936   24.0099 C.3     1  UNL1        0.0077
     32 C          12.1261   42.2431   23.6694 C.3     1  UNL1        0.0077
@<TRIPOS>BOND
     1    10    11    1
     2    11    12    1
     3    11     9    1
     4    12    16   ar
     5    12    13   ar
     6    13    14   ar
     7    14    15   ar
     8    14    17    1
     9    15    16   ar
    10    17    18    1
    11    17    19    1
    12    17    20    1
    13     9     7    1
    14     7     8    2
    15     7     1    1
    16     1     6   ar
    17     1     2   ar
    18     2     3   ar
    19     3     4   ar
    20     4     5   ar
    21     5     6   ar
    22     6    21    1
    23    21    22    1
    24    22    23    1
    25    22    24    1
    26    24    28   ar
    27    24    25   ar
    28    25    26   ar
    29    26    27   ar
    30    26    29    1
    31    27    28   ar
    32    29    30    1
    33    29    31    1
    34    29    32    1
@<TRIPOS>MOLECULE
ZINC19263181
 31 33 0 0 0
SMALL
GASTEIGER

@<TRIPOS>ATOM
      1 N          19.2626   37.9370   30.6001 N.am    1  UNL1       -0.2757
      2 C          20.1376   38.3647   29.6686 C.2     1  UNL1        0.2711
      3 O          20.5117   39.5184   29.6723 O.2     1  UNL1       -0.2707
      4 H          18.9590   37.0005   30.5971 H       1  UNL1        0.1554
      5 C          18.3534   40.5336   33.5769 C.ar    1  UNL1        0.0047
      6 C          17.2773   40.1867   32.8489 C.ar    1  UNL1       -0.0119
      7 C          17.4889   39.2674   31.7557 C.ar    1  UNL1        0.0915
      8 C          18.7902   38.8156   31.5625 C.ar    1  UNL1        0.0864
      9 S          19.6781   39.6229   32.8107 S.2     1  UNL1       -0.0767
     10 C          15.9094   40.7390   33.1571 C.3     1  UNL1        0.0315
     11 C          19.6735   41.1589   35.5808 C.3     1  UNL1        0.0056
     12 C          18.4221   41.4687   34.7567 C.3     1  UNL1        0.0327
     13 C          16.3876   38.8294   30.8958 C.2     1  UNL1        0.3426
     14 O          16.5516   38.7444   29.6935 O.2     1  UNL1       -0.2448
     15 O          15.1914   38.5202   31.4369 O.3     1  UNL1       -0.4454
     16 C          14.0242   38.6728   30.5868 C.3     1  UNL1        0.2089
     17 C          12.8346   39.1334   31.4316 C.3     1  UNL1        0.0513
     18 C          20.6514   37.4095   28.6224 C.3     1  UNL1        0.2931
     19 O          20.7484   38.0956   27.3464 O.3     1  UNL1       -0.4342
     20 C          21.9335   38.0342   26.7070 C.2     1  UNL1        0.3601
     21 O          22.0638   37.3143   25.7363 O.2     1  UNL1       -0.2432
     22 C          23.0694   38.8385   27.1841 C.ar    1  UNL1        0.1637
     23 C          24.2680   38.2399   27.4845 C.ar    1  UNL1        0.0626
     24 S          25.2230   39.6021   27.9825 S.2     1  UNL1       -0.0652
     25 C          23.9777   40.8623   27.7601 C.ar    1  UNL1        0.1169
     26 N          22.9489   40.1508   27.3300 N.ar    1  UNL1       -0.2313
     27 C          24.0713   42.3122   27.9945 C.ar    1  UNL1        0.0533
     28 C          23.2201   43.1323   28.6911 C.ar    1  UNL1        0.0090
     29 C          23.5193   44.4723   28.7805 C.ar    1  UNL1        0.0076
     30 C          24.6376   44.9437   28.1691 C.ar    1  UNL1        0.0355
     31 S          25.3181   43.4633   27.4394 S.2     1  UNL1       -0.0844
@<TRIPOS>BOND
     1    11    12    1
     2    12     5    1
     3     5     9   ar
     4     5     6   ar
     5     6     7   ar
     6     6    10    1
     7     7     8   ar
     8     7    13    1
     9     8     9   ar
    10     8     1    1
    11     1     2   am
    12     2     3    2
    13     2    18    1
    14    18    19    1
    15    19    20    1
    16    20    21    2
    17    20    22    1
    18    22    26   ar
    19    22    23   ar
    20    23    24   ar
    21    24    25   ar
    22    25    26   ar
    23    25    27    1
    24    27    31   ar
    25    27    28   ar
    26    28    29   ar
    27    29    30   ar
    28    30    31   ar
    29    13    14    2
    30    13    15    1
    31    15    16    1
    32    16    17    1
    33     1     4    1
@<TRIPOS>MOLECULE
ZINC03306262
 34 36 0 0 0
SMALL
GASTEIGER

@<TRIPOS>ATOM
      1 C          22.7523   39.1680   28.3542 C.3     1  UNL1        0.2521
      2 C          26.4754   35.5839   30.9398 C.3     1  UNL1        0.0310
      3 C          25.5048   36.5190   30.2657 C.ar    1  UNL1       -0.0219
      4 C          24.4957   37.1143   30.9993 C.ar    1  UNL1       -0.0045
      5 C          23.6050   37.9716   30.3807 C.ar    1  UNL1       -0.0007
      6 C          23.7234   38.2337   29.0286 C.ar    1  UNL1        0.0248
      7 C          24.7294   37.6343   28.2940 C.ar    1  UNL1       -0.0007
      8 C          25.6232   36.7809   28.9135 C.ar    1  UNL1       -0.0045
      9 C          23.5138   40.1833   27.5416 C.2     1  UNL1        0.2172
     10 O          23.7719   39.9585   26.3784 O.2     1  UNL1       -0.2872
     11 C          23.9441   41.4475   28.1599 C.ar    1  UNL1        0.0386
     12 C          25.2763   41.6225   28.5478 C.ar    1  UNL1        0.0027
     13 C          25.6729   42.8124   29.1207 C.ar    1  UNL1       -0.0042
     14 C          24.7540   43.8275   29.3231 C.ar    1  UNL1       -0.0218
     15 C          23.4326   43.6596   28.9476 C.ar    1  UNL1       -0.0042
     16 C          23.0216   42.4780   28.3678 C.ar    1  UNL1        0.0027
     17 C          25.1947   45.1222   29.9562 C.3     1  UNL1        0.0310
     18 O          21.8901   38.4196   27.4947 O.3     1  UNL1       -0.4365
     19 C          20.8294   37.8137   28.0678 C.2     1  UNL1        0.3420
     20 O          20.5369   36.6752   27.7547 O.2     1  UNL1       -0.2449
     21 C          20.0594   38.5018   29.0391 C.2     1  UNL1        0.0819
     22 C          19.9773   38.0225   30.2996 C.2     1  UNL1        0.0069
     23 C          19.1790   38.7358   31.3064 C.ar    1  UNL1        0.0064
     24 C          17.7844   38.6184   31.3078 C.ar    1  UNL1        0.0403
     25 C          17.0374   39.2871   32.2586 C.ar    1  UNL1        0.1754
     26 C          17.6700   40.0854   33.2085 C.ar    1  UNL1        0.2061
     27 C          19.0574   40.2086   33.2073 C.ar    1  UNL1        0.1754
     28 C          19.8113   39.5390   32.2627 C.ar    1  UNL1        0.0403
     29 O          19.6708   40.9892   34.1368 O.3     1  UNL1       -0.4683
     30 C          20.3258   40.3196   35.2160 C.3     1  UNL1        0.2526
     31 O          16.9317   40.7463   34.1388 O.3     1  UNL1       -0.4654
     32 C          16.0710   41.7844   33.6660 C.3     1  UNL1        0.2528
     33 O          15.6825   39.1703   32.2634 O.3     1  UNL1       -0.4683
     34 C          15.0197   39.2541   31.0002 C.3     1  UNL1        0.2526
@<TRIPOS>BOND
     1     2     3    1
     2     3     8   ar
     3     3     4   ar
     4     4     5   ar
     5     5     6   ar
     6     6     7   ar
     7     6     1    1
     8     7     8   ar
     9     1     9    1
    10     1    18    1
    11     9    10    2
    12     9    11    1
    13    11    16   ar
    14    11    12   ar
    15    12    13   ar
    16    13    14   ar
    17    14    15   ar
    18    14    17    1
    19    15    16   ar
    20    18    19    1
    21    19    20    2
    22    19    21    1
    23    21    22    2
    24    22    23    1
    25    23    28   ar
    26    23    24   ar
    27    24    25   ar
    28    25    26   ar
    29    25    33    1
    30    26    27   ar
    31    26    31    1
    32    27    28   ar
    33    27    29    1
    34    29    30    1
    35    31    32    1
    36    33    34    1
@<TRIPOS>MOLECULE
ZINC03018436
 31 33 0 0 0
SMALL
GASTEIGER

@<TRIPOS>ATOM
      1 C          21.7889   39.6724   28.5796 C.ar    1  UNL1        0.1747
      2 N          21.4722   40.9390   28.7580 N.ar    1  UNL1       -0.2157
      3 C          22.3475   41.9077   28.5447 C.ar    1  UNL1        0.1173
      4 C          23.6699   41.6416   28.1138 C.ar    1  UNL1        0.0768
      5 C          24.4847   42.7600   27.9295 C.ar    1  UNL1       -0.0030
      6 C          23.9873   44.0097   28.1642 C.ar    1  UNL1        0.1027
      7 S          22.3078   43.6782   28.6690 S.2     1  UNL1       -0.0616
      8 C          25.9106   42.5885   27.4728 C.3     1  UNL1        0.0320
      9 C          23.9934   40.2105   27.9227 C.ar    1  UNL1        0.2642
     10 O          25.1005   39.8661   27.5491 O.2     1  UNL1       -0.2669
     11 N          23.0331   39.2977   28.1660 N.ar    1  UNL1       -0.2714
     12 C          24.6633   45.2999   28.0346 C.2     1  UNL1        0.3470
     13 O          25.6669   45.5287   28.6829 O.2     1  UNL1       -0.2443
     14 O          24.1739   46.2367   27.1957 O.3     1  UNL1       -0.4451
     15 C          24.5016   47.5979   27.4811 C.3     1  UNL1        0.2089
     16 C          24.4345   48.4197   26.1922 C.3     1  UNL1        0.0513
     17 S          20.5741   38.4323   28.8817 S.3     1  UNL1       -0.0653
     18 C          20.2921   38.6929   30.6505 C.3     1  UNL1        0.1742
     19 C          18.8149   38.6213   30.9396 C.2     1  UNL1        0.3286
     20 O          18.0275   38.4900   30.0325 O.2     1  UNL1       -0.2491
     21 O          18.3738   38.7032   32.2046 O.3     1  UNL1       -0.4479
     22 C          19.5055   38.9497   34.3468 C.3     1  UNL1        0.0513
     23 C          19.0379   39.6582   33.0738 C.3     1  UNL1        0.2086
     24 C          23.3311   37.8751   27.9827 C.3     1  UNL1        0.1377
     25 C          24.1937   37.3920   29.1199 C.ar    1  UNL1        0.0005
     26 C          23.7286   37.4648   30.4197 C.ar    1  UNL1       -0.0027
     27 C          24.5184   37.0180   31.4625 C.ar    1  UNL1       -0.0045
     28 C          25.7766   36.5058   31.2064 C.ar    1  UNL1       -0.0219
     29 C          26.2438   36.4378   29.9071 C.ar    1  UNL1       -0.0045
     30 C          25.4525   36.8810   28.8640 C.ar    1  UNL1       -0.0027
     31 C          26.6391   36.0222   32.3436 C.3     1  UNL1        0.0310
@<TRIPOS>BOND
     1    22    23    1
     2    23    21    1
     3    21    19    1
     4    19    20    2
     5    19    18    1
     6    18    17    1
     7    17     1    1
     8     1    11   ar
     9     1     2   ar
    10     2     3   ar
    11     3     7   ar
    12     3     4   ar
    13     4     5   ar
    14     4     9   ar
    15     5     6   ar
    16     5     8    1
    17     6     7   ar
    18     6    12    1
    19    12    13    2
    20    12    14    1
    21    14    15    1
    22    15    16    1
    23     9    10    2
    24     9    11   ar
    25    11    24    1
    26    24    25    1
    27    25    30   ar
    28    25    26   ar
    29    26    27   ar
    30    27    28   ar
    31    28    29   ar
    32    28    31    1
    33    29    30   ar
@<TRIPOS>MOLECULE
ZINC08980293
 34 37 0 0 0
SMALL
GASTEIGER

@<TRIPOS>ATOM
      1 C          22.8243   38.0929   29.6379 C.ar    1  UNL1        0.1151
      2 C          23.9100   38.3595   28.7844 C.ar    1  UNL1        0.1470
      3 N          25.1388   38.0425   29.1453 N.ar    1  UNL1       -0.2279
      4 C          25.3501   37.4516   30.3281 C.ar    1  UNL1        0.1003
      5 C          26.6464   37.0956   30.7378 C.ar    1  UNL1        0.0207
      6 C          26.8319   36.4963   31.9459 C.ar    1  UNL1        0.0016
      7 C          25.7529   36.2290   32.7860 C.ar    1  UNL1        0.0016
      8 C          24.4837   36.5598   32.4220 C.ar    1  UNL1        0.0206
      9 C          24.2531   37.1800   31.1823 C.ar    1  UNL1        0.0987
     10 N          23.0145   37.5157   30.7994 N.ar    1  UNL1       -0.2437
     11 N          23.6879   38.9657   27.5570 N.pl3   1  UNL1       -0.2888
     12 C          23.7770   37.9882   26.4632 C.3     1  UNL1        0.1136
     13 C          23.4483   38.6789   25.1375 C.3     1  UNL1        0.1123
     14 N          24.3835   39.7919   24.9229 N.pl3   1  UNL1       -0.3041
     15 C          24.2945   40.7693   26.0168 C.3     1  UNL1        0.1123
     16 C          24.6233   40.0786   27.3424 C.3     1  UNL1        0.1136
     17 C          24.1599   40.4025   23.6868 C.ar    1  UNL1        0.0479
     18 C          24.8611   41.5503   23.3402 C.ar    1  UNL1        0.0145
     19 C          24.6410   42.1487   22.1152 C.ar    1  UNL1        0.0013
     20 C          23.7159   41.6125   21.2383 C.ar    1  UNL1        0.0001
     21 C          23.0122   40.4729   21.5823 C.ar    1  UNL1        0.0013
     22 C          23.2314   39.8664   22.8035 C.ar    1  UNL1        0.0145
     23 C          21.4290   38.4686   29.2105 C.3     1  UNL1        0.2319
     24 C          20.5606   38.6451   30.4295 C.2     1  UNL1        0.3369
     25 O          19.6486   37.8803   30.6374 O.2     1  UNL1       -0.2485
     26 O          20.8038   39.6486   31.2871 O.3     1  UNL1       -0.4475
     27 C          20.4534   39.4260   32.6786 C.3     1  UNL1        0.2084
     28 C          19.2846   40.3358   33.0620 C.3     1  UNL1        0.0439
     29 C          16.9192   40.3674   33.8662 C.3     1  UNL1        0.0001
     30 C          18.0335   39.4869   33.2971 C.3     1  UNL1        0.0037
     31 C          19.6310   41.0991   34.3419 C.3     1  UNL1        0.0037
     32 C          20.5039   40.2198   35.2396 C.3     1  UNL1        0.0001
     33 C          20.8720   37.4028   28.3616 C.1     1  UNL1        0.0898
     34 N          20.4423   36.5804   27.7063 N.1     1  UNL1       -0.1949
@<TRIPOS>BOND
     1    29    30    1
     2    30    28    1
     3    28    31    1
     4    28    27    1
     5    31    32    1
     6    27    26    1
     7    26    24    1
     8    24    25    2
     9    24    23    1
    10    23    33    1
    11    23     1    1
    12    33    34    3
    13     1    10   ar
    14     1     2   ar
    15     2     3   ar
    16     2    11    1
    17     3     4   ar
    18     4     9   ar
    19     4     5   ar
    20     5     6   ar
    21     6     7   ar
    22     7     8   ar
    23     8     9   ar
    24     9    10   ar
    25    11    16    1
    26    11    12    1
    27    12    13    1
    28    13    14    1
    29    14    15    1
    30    14    17    1
    31    15    16    1
    32    17    22   ar
    33    17    18   ar
    34    18    19   ar
    35    19    20   ar
    36    20    21   ar
    37    21    22   ar
@<TRIPOS>MOLECULE
ZINC21760470
 34 36 0 0 0
SMALL
GASTEIGER

@<TRIPOS>ATOM
      1 N          25.8465   39.7178   28.8808 N.ar    1  UNL1       -0.2165
      2 C          26.0979   41.0038   29.2009 C.ar    1  UNL1        0.2763
      3 O          27.1712   41.3296   29.6741 O.2     1  UNL1       -0.2655
      4 C          25.0480   42.0035   28.9600 C.ar    1  UNL1        0.0593
      5 C          25.2098   43.3545   29.2507 C.ar    1  UNL1        0.0048
      6 C          24.1735   44.2283   28.9996 C.ar    1  UNL1        0.0002
      7 C          22.9763   43.7739   28.4621 C.ar    1  UNL1        0.0001
      8 C          22.7963   42.4389   28.1676 C.ar    1  UNL1        0.0019
      9 C          23.8291   41.5406   28.4127 C.ar    1  UNL1        0.0304
     10 C          23.7183   40.1009   28.1267 C.ar    1  UNL1        0.1764
     11 N          24.7370   39.3168   28.3861 N.ar    1  UNL1       -0.1602
     12 C          22.4764   39.5468   27.5556 C.2     1  UNL1        0.3612
     13 O          22.4571   39.1595   26.4041 O.2     1  UNL1       -0.2431
     14 O          21.3630   39.4700   28.3110 O.3     1  UNL1       -0.4386
     15 C          21.2344   38.3139   29.1800 C.3     1  UNL1        0.2446
     16 C          21.1258   37.0465   28.3299 C.3     1  UNL1        0.0575
     17 C          19.9968   38.4578   30.0278 C.2     1  UNL1        0.2663
     18 O          18.8995   38.3575   29.5209 O.2     1  UNL1       -0.2710
     19 N          20.1093   38.6978   31.3492 N.am    1  UNL1       -0.2708
     20 C          21.4284   38.9343   31.9410 C.3     1  UNL1        0.1153
     21 C          18.9124   38.7224   32.1937 C.3     1  UNL1        0.1200
     22 C          19.1514   39.6236   33.3776 C.ar    1  UNL1       -0.0063
     23 C          20.2997   39.4808   34.1344 C.ar    1  UNL1       -0.0029
     24 C          20.5212   40.3106   35.2174 C.ar    1  UNL1       -0.0003
     25 C          19.5895   41.2764   35.5502 C.ar    1  UNL1       -0.0003
     26 C          18.4391   41.4156   34.7968 C.ar    1  UNL1       -0.0045
     27 C          18.2201   40.5891   33.7103 C.ar    1  UNL1       -0.0242
     28 C          16.9656   40.7405   32.8891 C.3     1  UNL1        0.0308
     29 C          26.8984   38.7261   29.1180 C.3     1  UNL1        0.1307
     30 C          26.2875   37.4774   29.7570 C.3     1  UNL1        0.0265
     31 C          27.4052   36.5216   30.1789 C.3     1  UNL1        0.0021
     32 C          27.1636   36.0573   31.6166 C.3     1  UNL1        0.0001
     33 C          25.3936   35.3573   33.2351 C.3     1  UNL1        0.0000
     34 C          25.7266   35.5506   31.7543 C.3     1  UNL1        0.0000
@<TRIPOS>BOND
     1    33    34    1
     2    34    32    1
     3    32    31    1
     4    31    30    1
     5    30    29    1
     6    29     1    1
     7     1    11   ar
     8     1     2   ar
     9     2     3    2
    10     2     4   ar
    11     4     9   ar
    12     4     5   ar
    13     5     6   ar
    14     6     7   ar
    15     7     8   ar
    16     8     9   ar
    17     9    10   ar
    18    10    11   ar
    19    10    12    1
    20    12    13    2
    21    12    14    1
    22    14    15    1
    23    15    16    1
    24    15    17    1
    25    17    18    2
    26    17    19   am
    27    19    20    1
    28    19    21    1
    29    21    22    1
    30    22    27   ar
    31    22    23   ar
    32    23    24   ar
    33    24    25   ar
    34    25    26   ar
    35    26    27   ar
    36    27    28    1
@<TRIPOS>MOLECULE
ZINC08438969
 33 35 0 0 0
SMALL
GASTEIGER

@<TRIPOS>ATOM
      1 C          20.9865   39.0158   29.5856 C.ar    1  UNL1        0.0036
      2 C          21.4686   40.1685   28.9533 C.ar    1  UNL1       -0.0007
      3 C          22.7884   40.2396   28.5653 C.ar    1  UNL1        0.0192
      4 C          23.6446   39.1728   28.8041 C.ar    1  UNL1        0.1690
      5 C          23.1712   38.0194   29.4284 C.ar    1  UNL1        0.1719
      6 C          21.8498   37.9388   29.8210 C.ar    1  UNL1        0.0400
      7 N          17.8724   39.4928   33.2177 N.am    1  UNL1       -0.2172
      8 C          17.9266   39.1088   31.9534 C.2     1  UNL1        0.2615
      9 O          16.9517   38.6604   31.3792 O.2     1  UNL1       -0.2689
     10 C          19.2305   39.2476   31.2750 C.2     1  UNL1        0.0875
     11 C          19.5803   38.9371   30.0009 C.2     1  UNL1        0.0113
     12 S          20.2200   39.9443   32.5907 S.3     1  UNL1       -0.0252
     13 C          18.9534   39.9954   33.8482 C.2     1  UNL1        0.2865
     14 O          19.0435   40.3889   34.9956 O.2     1  UNL1       -0.2620
     15 C          16.6079   39.3754   33.9480 C.3     1  UNL1        0.1020
     16 C          15.4707   41.3738   32.9702 C.3     1  UNL1        0.0018
     17 C          16.0603   40.7724   34.2475 C.3     1  UNL1        0.0220
     18 O          24.0127   36.9755   29.6557 O.3     1  UNL1       -0.4724
     19 C          24.3591   36.7057   31.0156 C.3     1  UNL1        0.2057
     20 C          25.2706   35.4783   31.0758 C.3     1  UNL1        0.0512
     21 O          24.9465   39.2514   28.4241 O.3     1  UNL1       -0.4679
     22 C          25.3472   38.4484   27.3120 C.3     1  UNL1        0.2328
     23 C          25.2003   39.2430   26.0400 C.ar    1  UNL1        0.0308
     24 C          26.1668   40.1602   25.6820 C.ar    1  UNL1       -0.0000
     25 C          26.0355   40.8873   24.5124 C.ar    1  UNL1       -0.0002
     26 C          24.9308   40.7075   23.6986 C.ar    1  UNL1        0.0007
     27 C          23.9544   39.7978   24.0471 C.ar    1  UNL1        0.0101
     28 C          24.0829   39.0569   25.2239 C.ar    1  UNL1        0.0679
     29 C          23.0728   38.1110   25.5921 C.1     1  UNL1        0.1002
     30 N          22.2715   37.3605   25.8842 N.1     1  UNL1       -0.1908
     31 C          23.3059   41.4809   27.8854 C.3     1  UNL1        0.0555
     32 C          22.6462   42.6951   28.4867 C.2     1  UNL1       -0.0213
     33 C          23.3792   43.6596   28.9852 C.2     1  UNL1       -0.0046
@<TRIPOS>BOND
     1    16    17    1
     2    17    15    1
     3    15     7    1
     4     7    13   am
     5     7     8   am
     6     8     9    2
     7     8    10    1
     8    10    11    2
     9    10    12    1
    10    11     1    1
    11     1     6   ar
    12     1     2   ar
    13     2     3   ar
    14     3     4   ar
    15     3    31    1
    16     4     5   ar
    17     4    21    1
    18     5     6   ar
    19     5    18    1
    20    18    19    1
    21    19    20    1
    22    21    22    1
    23    22    23    1
    24    23    28   ar
    25    23    24   ar
    26    24    25   ar
    27    25    26   ar
    28    26    27   ar
    29    27    28   ar
    30    28    29    1
    31    29    30    3
    32    31    32    1
    33    32    33    2
    34    12    13    1
    35    13    14    2
@<TRIPOS>MOLECULE
ZINC27499745
 33 36 0 0 0
SMALL
GASTEIGER

@<TRIPOS>ATOM
      1 C          24.4083   38.1782   29.1362 C.2     1  UNL1        0.3400
      2 O          23.9413   38.8680   30.0226 O.2     1  UNL1       -0.2449
      3 C          25.8558   38.1457   28.9194 C.ar    1  UNL1        0.0550
      4 C          26.6392   36.9439   29.2068 C.ar    1  UNL1       -0.0153
      5 C          27.9582   37.0513   28.9682 C.ar    1  UNL1        0.0017
      6 S          28.1764   38.7083   28.3672 S.2     1  UNL1       -0.1163
      7 C          26.5343   39.2510   28.4311 C.ar    1  UNL1       -0.0856
      8 C          28.6950   35.7790   29.2890 C.3     1  UNL1        0.0329
      9 C          27.5933   34.6986   29.3597 C.3     1  UNL1        0.0099
     10 C          26.3550   35.5370   29.7346 C.3     1  UNL1        0.0271
     11 N          26.0234   40.4903   28.0844 N.am    1  UNL1       -0.6030
     12 C          25.9896   41.4838   28.9945 C.2     1  UNL1        0.1167
     13 O          26.8001   41.5055   29.9022 O.2     1  UNL1       -0.3098
     14 C          24.9767   42.5384   28.8912 C.ar    1  UNL1        0.1609
     15 C          25.1268   43.8372   29.2862 C.ar    1  UNL1        0.0420
     16 C          23.9159   44.4877   29.0029 C.ar    1  UNL1        0.0438
     17 C          23.0900   43.5694   28.4543 C.ar    1  UNL1        0.1797
     18 O          23.7345   42.3975   28.3838 O.2     1  UNL1       -0.4491
     19 O          23.5924   37.4433   28.3528 O.3     1  UNL1       -0.4353
     20 C          22.4774   38.1345   27.7305 C.3     1  UNL1        0.2929
     21 N          20.4842   38.8684   28.9984 N.am    1  UNL1       -0.2706
     22 C          20.9162   40.2518   28.7847 C.3     1  UNL1        0.1153
     23 C          21.2154   37.8500   28.5035 C.2     1  UNL1        0.2706
     24 O          20.8578   36.7048   28.6804 O.2     1  UNL1       -0.2708
     25 C          19.2574   38.5918   29.7498 C.3     1  UNL1        0.1203
     26 C          19.8313   39.6449   33.8498 C.ar    1  UNL1       -0.0222
     27 C          20.9245   39.4147   33.0357 C.ar    1  UNL1       -0.0045
     28 C          20.7389   39.0741   31.7089 C.ar    1  UNL1       -0.0029
     29 C          19.4599   38.9631   31.1963 C.ar    1  UNL1       -0.0024
     30 C          18.3667   39.1984   32.0090 C.ar    1  UNL1       -0.0029
     31 C          18.5523   39.5348   33.3369 C.ar    1  UNL1       -0.0045
     32 C          19.3995   41.3812   35.5667 C.3     1  UNL1        0.0050
     33 C          20.0336   40.0152   35.2964 C.3     1  UNL1        0.0264
@<TRIPOS>UNITY_ATOM_ATTR
11 1
charge -1
@<TRIPOS>BOND
     1    32    33    1
     2    33    26    1
     3    26    31   ar
     4    26    27   ar
     5    27    28   ar
     6    28    29   ar
     7    29    30   ar
     8    29    25    1
     9    30    31   ar
    10    25    21    1
    11    21    22    1
    12    21    23   am
    13    23    24    2
    14    23    20    1
    15    20    19    1
    16    19     1    1
    17     1     2    2
    18     1     3    1
    19     3     7   ar
    20     3     4   ar
    21     4    10    1
    22     4     5   ar
    23     5     6   ar
    24     5     8    1
    25     6     7   ar
    26     7    11    1
    27    11    12    1
    28    12    13    2
    29    12    14    1
    30    14    18   ar
    31    14    15   ar
    32    15    16   ar
    33    16    17   ar
    34    17    18   ar
    35     8     9    1
    36     9    10    1
@<TRIPOS>MOLECULE
ZINC10488331
 33 37 0 0 0
SMALL
GASTEIGER

@<TRIPOS>ATOM
      1 N          21.6465   39.3693   29.2424 N.ar    1  UNL1       -0.3041
      2 C          21.1794   40.5923   28.9245 C.ar    1  UNL1        0.1801
      3 N          22.0676   41.2312   28.2063 N.ar    1  UNL1       -0.2063
      4 C          23.1430   40.4602   28.0258 C.ar    1  UNL1        0.1696
      5 C          22.9022   39.2582   28.6795 C.ar    1  UNL1        0.1527
      6 C          23.8888   38.2491   28.6490 C.ar    1  UNL1        0.2835
      7 O          23.7013   37.1869   29.2148 O.2     1  UNL1       -0.2651
      8 N          25.0421   38.4752   27.9862 N.ar    1  UNL1       -0.2402
      9 C          25.2640   39.6450   27.3623 C.ar    1  UNL1        0.3353
     10 O          26.3172   39.8150   26.7787 O.2     1  UNL1       -0.2461
     11 N          24.3474   40.6312   27.3627 N.ar    1  UNL1       -0.2648
     12 C          20.9533   38.3504   30.0345 C.3     1  UNL1        0.1078
     13 C          19.4745   38.7218   30.1613 C.3     1  UNL1        0.0245
     14 C          19.0356   38.5769   31.6198 C.3     1  UNL1        0.0020
     15 C          19.8825   39.0768   33.9166 C.3     1  UNL1        0.0000
     16 C          19.7832   39.5967   32.4811 C.3     1  UNL1        0.0001
     17 C          24.6264   41.8893   26.6659 C.3     1  UNL1        0.1120
     18 C          25.1929   42.9070   27.6580 C.3     1  UNL1        0.0247
     19 C          24.2010   44.0593   27.8290 C.3     1  UNL1        0.0020
     20 C          23.9022   44.2586   29.3162 C.3     1  UNL1        0.0001
     21 C          26.0704   37.4324   27.9511 C.3     1  UNL1        0.1779
     22 C          26.9633   37.5665   29.1578 C.2     1  UNL1        0.1728
     23 O          27.6551   38.5472   29.2910 O.2     1  UNL1       -0.2940
     24 C          26.9926   36.4767   30.1982 C.3     1  UNL1        0.0535
     25 C          26.5592   35.1537   29.5634 C.3     1  UNL1        0.0070
     26 C          26.5890   34.0473   30.6196 C.3     1  UNL1        0.0004
     27 C          28.0091   33.9070   31.1714 C.3     1  UNL1        0.0000
     28 C          28.4426   35.2299   31.8062 C.3     1  UNL1        0.0004
     29 C          28.4127   36.3364   30.7499 C.3     1  UNL1        0.0070
     30 C          27.4857   35.5866   32.9455 C.3     1  UNL1        0.0000
     31 C          26.0655   35.7268   32.3938 C.3     1  UNL1        0.0004
     32 C          25.6320   34.4039   31.7590 C.3     1  UNL1        0.0000
     33 C          26.0357   36.8333   31.3376 C.3     1  UNL1        0.0070
@<TRIPOS>BOND
     1    15    16    1
     2    16    14    1
     3    14    13    1
     4    13    12    1
     5    12     1    1
     6     1     5   ar
     7     1     2   ar
     8     2     3   ar
     9     3     4   ar
    10     4    11   ar
    11     4     5   ar
    12     5     6   ar
    13     6     7    2
    14     6     8   ar
    15     8     9   ar
    16     8    21    1
    17     9    10    2
    18     9    11   ar
    19    11    17    1
    20    17    18    1
    21    18    19    1
    22    19    20    1
    23    21    22    1
    24    22    23    2
    25    22    24    1
    26    24    29    1
    27    24    33    1
    28    24    25    1
    29    25    26    1
    30    26    32    1
    31    26    27    1
    32    27    28    1
    33    28    29    1
    34    28    30    1
    35    30    31    1
    36    31    32    1
    37    31    33    1
@<TRIPOS>MOLECULE
ZINC21987201
 33 36 0 0 0
SMALL
GASTEIGER

@<TRIPOS>ATOM
      1 C          26.6550   38.5161   26.5974 C.3     1  UNL1        0.1682
      2 C          25.8636   42.0789   27.2865 C.3     1  UNL1        0.0062
      3 C          25.7213   40.8162   26.4603 C.2     1  UNL1        0.2148
      4 O          25.0493   40.6658   25.4624 O.2     1  UNL1       -0.2759
      5 N          26.4963   39.8950   27.0662 N.am    1  UNL1       -0.2389
      6 C          27.1021   40.3951   28.1491 C.2     1  UNL1        0.1382
      7 O          27.8515   39.7549   28.8602 O.2     1  UNL1       -0.2967
      8 N          26.7890   41.6858   28.3631 N.am    1  UNL1       -0.6092
      9 C          24.5314   42.4922   27.8571 C.ar    1  UNL1       -0.0332
     10 C          24.3242   43.8010   28.2509 C.ar    1  UNL1       -0.0054
     11 C          23.1019   44.1802   28.7736 C.ar    1  UNL1       -0.0004
     12 C          22.0867   43.2509   28.9018 C.ar    1  UNL1       -0.0000
     13 C          22.2956   41.9409   28.5130 C.ar    1  UNL1       -0.0004
     14 C          23.5164   41.5627   27.9863 C.ar    1  UNL1       -0.0054
     15 C          26.4625   43.2101   26.4482 C.3     1  UNL1       -0.0074
     16 C          28.1918   45.0088   26.5757 C.3     1  UNL1       -0.0000
     17 C          27.8384   43.5831   27.0037 C.3     1  UNL1       -0.0008
     18 C          25.3078   37.8421   26.5539 C.2     1  UNL1        0.1945
     19 O          24.8996   37.3685   25.5140 O.2     1  UNL1       -0.2895
     20 C          24.4913   37.7587   27.7668 C.ar    1  UNL1        0.0492
     21 C          24.9613   37.5015   29.1346 C.ar    1  UNL1        0.0167
     22 C          23.8700   37.5137   29.9182 C.ar    1  UNL1        0.0372
     23 N          22.7689   37.7566   29.1492 N.ar    1  UNL1       -0.3335
     24 C          23.1208   37.9119   27.8605 C.ar    1  UNL1        0.0399
     25 C          22.1831   38.1998   26.7165 C.3     1  UNL1        0.0501
     26 C          23.8631   37.2950   31.4093 C.3     1  UNL1        0.0500
     27 C          21.3974   37.8425   29.6571 C.3     1  UNL1        0.1106
     28 C          21.0949   39.2850   30.0675 C.3     1  UNL1        0.0574
     29 C          20.0868   39.2877   31.1876 C.ar    1  UNL1        0.0092
     30 C          20.2312   39.7174   32.4650 C.ar    1  UNL1        0.0028
     31 C          19.1568   39.6227   33.3296 C.ar    1  UNL1        0.0072
     32 C          17.9907   39.1030   32.8745 C.ar    1  UNL1        0.0351
     33 S          18.3898   38.7331   31.1742 S.2     1  UNL1       -0.0907
@<TRIPOS>UNITY_ATOM_ATTR
8 1
charge -1
@<TRIPOS>BOND
     1    16    17    1
     2    17    15    1
     3    15     2    1
     4     2     8    1
     5     2     3    1
     6     2     9    1
     7     3     4    2
     8     3     5   am
     9     5     6   am
    10     5     1    1
    11     6     7    2
    12     6     8    1
    13     1    18    1
    14    18    19    2
    15    18    20    1
    16    20    24   ar
    17    20    21   ar
    18    21    22   ar
    19    22    23   ar
    20    22    26    1
    21    23    24   ar
    22    23    27    1
    23    24    25    1
    24    27    28    1
    25    28    29    1
    26    29    33   ar
    27    29    30   ar
    28    30    31   ar
    29    31    32   ar
    30    32    33   ar
    31     9    14   ar
    32     9    10   ar
    33    10    11   ar
    34    11    12   ar
    35    12    13   ar
    36    13    14   ar
@<TRIPOS>MOLECULE
ZINC30765611
 34 37 0 0 0
SMALL
GASTEIGER

@<TRIPOS>ATOM
      1 C          22.7439   38.6188   29.2697 C.ar    1  UNL1        0.1141
      2 C          23.0916   37.8631   30.3718 C.ar    1  UNL1        0.1084
      3 N          24.2514   37.2427   30.0967 N.ar    1  UNL1       -0.2280
      4 N          24.6703   37.5790   28.8064 N.ar    1  UNL1       -0.1647
      5 C          23.7970   38.4027   28.2713 C.ar    1  UNL1        0.1119
      6 C          23.8632   38.9991   26.9170 C.ar    1  UNL1        0.0538
      7 C          23.2559   38.3561   25.8392 C.ar    1  UNL1        0.0077
      8 C          23.3141   38.9164   24.5809 C.ar    1  UNL1        0.0372
      9 C          23.9866   40.1156   24.3805 C.ar    1  UNL1        0.1418
     10 C          24.5983   40.7589   25.4460 C.ar    1  UNL1        0.0738
     11 C          24.5403   40.2068   26.7142 C.ar    1  UNL1        0.1432
     12 O          25.1393   40.8353   27.7589 O.3     1  UNL1       -0.4713
     13 C          24.7051   42.1651   28.0511 C.3     1  UNL1        0.2525
     14 O          24.0455   40.6594   23.1369 O.3     1  UNL1       -0.4713
     15 C          23.1322   40.1507   22.1626 C.3     1  UNL1        0.2525
     16 C          24.9339   36.3846   30.9686 C.ar    1  UNL1        0.0829
     17 C          25.8625   35.4806   30.4699 C.ar    1  UNL1        0.0191
     18 C          26.5373   34.6393   31.3326 C.ar    1  UNL1        0.0015
     19 C          26.2809   34.6887   32.6906 C.ar    1  UNL1        0.0001
     20 C          25.3532   35.5844   33.1898 C.ar    1  UNL1        0.0015
     21 C          24.6790   36.4322   32.3329 C.ar    1  UNL1        0.0191
     22 C          21.5511   39.4667   29.1230 C.2     1  UNL1        0.3448
     23 O          21.6739   40.6594   28.9235 O.2     1  UNL1       -0.2448
     24 O          20.3216   38.9211   29.2101 O.3     1  UNL1       -0.4350
     25 C          19.9293   38.3824   30.5000 C.3     1  UNL1        0.2957
     26 C          16.6198   39.2361   31.5986 C.ar    1  UNL1        0.1797
     27 N          17.9389   39.1423   31.8436 N.ar    1  UNL1       -0.1918
     28 C          18.4698   38.6699   30.7416 C.ar    1  UNL1        0.2810
     29 O          17.4686   38.4867   29.8756 O.2     1  UNL1       -0.3334
     30 N          16.4185   38.8166   30.3854 N.ar    1  UNL1       -0.0605
     31 C          15.6004   41.2603   32.6049 C.3     1  UNL1        0.0077
     32 C          15.5676   39.7315   32.5571 C.3     1  UNL1        0.0557
     33 C          14.1885   39.2653   32.0861 C.3     1  UNL1        0.0077
     34 C          15.8457   39.1715   33.9535 C.3     1  UNL1        0.0077
@<TRIPOS>BOND
     1    31    32    1
     2    32    33    1
     3    32    34    1
     4    32    26    1
     5    26    30   ar
     6    26    27   ar
     7    27    28   ar
     8    28    29   ar
     9    28    25    1
    10    29    30   ar
    11    25    24    1
    12    24    22    1
    13    22    23    2
    14    22     1    1
    15     1     5   ar
    16     1     2   ar
    17     2     3   ar
    18     3     4   ar
    19     3    16    1
    20     4     5   ar
    21     5     6    1
    22     6    11   ar
    23     6     7   ar
    24     7     8   ar
    25     8     9   ar
    26     9    10   ar
    27     9    14    1
    28    10    11   ar
    29    11    12    1
    30    12    13    1
    31    14    15    1
    32    16    21   ar
    33    16    17   ar
    34    17    18   ar
    35    18    19   ar
    36    19    20   ar
    37    20    21   ar
@<TRIPOS>MOLECULE
ZINC04802885
 34 37 0 0 0
SMALL
GASTEIGER

@<TRIPOS>ATOM
      1 C          21.5016   38.3557   28.3076 C.3     1  UNL1        0.2053
      2 C          22.9769   38.1210   28.7012 C.3     1  UNL1        0.2449
      3 C          23.6666   37.7516   27.3689 C.3     1  UNL1        0.2723
      4 C          22.5265   37.8067   26.3281 C.3     1  UNL1        0.3228
      5 O          21.3189   37.5975   27.0921 O.3     1  UNL1       -0.3188
      6 F          22.4972   39.0583   25.7037 F       1  UNL1       -0.1998
      7 C          20.5689   37.8371   29.4040 C.3     1  UNL1        0.2420
      8 O          20.3547   38.8805   30.3908 O.3     1  UNL1       -0.4426
      9 C          19.4191   38.6494   31.3320 C.2     1  UNL1        0.3413
     10 O          18.5478   37.8267   31.1332 O.2     1  UNL1       -0.2449
     11 C          19.5155   40.7980   34.9937 C.ar    1  UNL1        0.0000
     12 C          20.6508   40.1441   34.5489 C.ar    1  UNL1        0.0002
     13 C          20.6264   39.4441   33.3605 C.ar    1  UNL1        0.0064
     14 C          19.4526   39.3967   32.6059 C.ar    1  UNL1        0.0756
     15 C          18.3122   40.0637   33.0578 C.ar    1  UNL1        0.0064
     16 C          18.3490   40.7557   34.2507 C.ar    1  UNL1        0.0002
     17 O          24.6988   38.7200   27.0448 O.3     1  UNL1       -0.4397
     18 C          25.2849   39.3576   28.0765 C.2     1  UNL1        0.3414
     19 O          26.0355   38.7537   28.8164 O.2     1  UNL1       -0.2449
     20 C          25.0148   40.7914   28.3083 C.ar    1  UNL1        0.0756
     21 C          23.8759   41.3876   27.7634 C.ar    1  UNL1        0.0064
     22 C          23.6297   42.7268   27.9842 C.ar    1  UNL1        0.0002
     23 C          24.5083   43.4791   28.7436 C.ar    1  UNL1        0.0000
     24 C          25.6416   42.8959   29.2820 C.ar    1  UNL1        0.0002
     25 C          25.8974   41.5564   29.0735 C.ar    1  UNL1        0.0064
     26 O          23.0853   37.0277   29.6506 O.3     1  UNL1       -0.4425
     27 C          23.7507   37.2756   30.7953 C.2     1  UNL1        0.3413
     28 O          23.5474   38.3063   31.4051 O.2     1  UNL1       -0.2449
     29 C          24.7277   36.2938   31.3092 C.ar    1  UNL1        0.0756
     30 C          24.8224   36.0509   32.6809 C.ar    1  UNL1        0.0064
     31 C          25.7328   35.1285   33.1535 C.ar    1  UNL1        0.0002
     32 C          26.5589   34.4531   32.2726 C.ar    1  UNL1        0.0000
     33 C          26.4742   34.6932   30.9125 C.ar    1  UNL1        0.0002
     34 C          25.5643   35.6087   30.4259 C.ar    1  UNL1        0.0064
@<TRIPOS>BOND
     1    11    16   ar
     2    11    12   ar
     3    12    13   ar
     4    13    14   ar
     5    14    15   ar
     6    14     9    1
     7    15    16   ar
     8     9    10    2
     9     9     8    1
    10     8     7    1
    11     7     1    1
    12     1     5    1
    13     1     2    1
    14     2     3    1
    15     2    26    1
    16     3     4    1
    17     3    17    1
    18     4     5    1
    19     4     6    1
    20    17    18    1
    21    18    19    2
    22    18    20    1
    23    20    25   ar
    24    20    21   ar
    25    21    22   ar
    26    22    23   ar
    27    23    24   ar
    28    24    25   ar
    29    26    27    1
    30    27    28    2
    31    27    29    1
    32    29    34   ar
    33    29    30   ar
    34    30    31   ar
    35    31    32   ar
    36    32    33   ar
    37    33    34   ar
@<TRIPOS>MOLECULE
ZINC16736628
 33 36 0 0 0
SMALL
GASTEIGER

@<TRIPOS>ATOM
      1 C          11.0940   37.6258   27.9069 C.2     1  UNL1        0.0115
      2 C          12.3441   37.8671   28.3817 C.ar    1  UNL1        0.0902
      3 C          12.8345   37.8642   29.7672 C.ar    1  UNL1        0.2881
      4 O          12.0888   37.6223   30.6983 O.2     1  UNL1       -0.2645
      5 N          14.1306   38.1374   29.9703 N.ar    1  UNL1       -0.1689
      6 C          14.9264   38.4028   28.8919 C.ar    1  UNL1        0.1999
      7 S          13.8392   38.2734   27.4914 S.2     1  UNL1       -0.0437
      8 N          16.1436   38.6420   29.2923 N.ar    1  UNL1       -0.2000
      9 C          16.1968   38.5452   30.6291 C.ar    1  UNL1        0.1841
     10 N          15.0076   38.2372   31.0853 N.ar    1  UNL1       -0.1412
     11 C          10.2222   38.2640   23.8039 C.ar    1  UNL1        0.1722
     12 C          10.6327   37.0106   24.2389 C.ar    1  UNL1        0.0400
     13 C          10.9171   36.7984   25.5697 C.ar    1  UNL1        0.0033
     14 C          10.7922   37.8487   26.4879 C.ar    1  UNL1        0.0039
     15 C          10.3729   39.1108   26.0486 C.ar    1  UNL1        0.0401
     16 C          10.0948   39.3150   24.7116 C.ar    1  UNL1        0.1724
     17 O           9.6919   40.5402   24.2806 O.3     1  UNL1       -0.4684
     18 C          10.4192   41.6703   24.7664 C.3     1  UNL1        0.2526
     19 O           9.9432   38.4667   22.4900 O.3     1  UNL1       -0.4724
     20 C          11.0107   38.9383   21.6654 C.3     1  UNL1        0.2056
     21 C          10.7437   40.3912   21.2668 C.3     1  UNL1        0.0473
     22 C          11.7654   42.6693   21.3600 C.3     1  UNL1        0.0001
     23 C          12.0601   41.1707   21.2684 C.3     1  UNL1        0.0038
     24 C          17.4097   38.7481   31.4584 C.ar    1  UNL1        0.0378
     25 C          17.2866   39.0571   32.8121 C.ar    1  UNL1        0.0062
     26 C          18.4162   39.2401   33.5815 C.ar    1  UNL1        0.0370
     27 C          19.6751   39.1274   33.0069 C.ar    1  UNL1        0.1391
     28 C          19.8008   38.8252   31.6575 C.ar    1  UNL1        0.0370
     29 C          18.6750   38.6357   30.8842 C.ar    1  UNL1        0.0062
     30 O          20.7861   39.3137   33.7662 O.3     1  UNL1       -0.4707
     31 C          20.5856   39.7354   35.1168 C.3     1  UNL1        0.2318
     32 C          20.2623   41.2071   35.1408 C.2     1  UNL1        0.0207
     33 C          19.1309   41.6209   35.6557 C.2     1  UNL1       -0.0011
@<TRIPOS>BOND
     1    22    23    1
     2    23    21    1
     3    21    20    1
     4    20    19    1
     5    19    11    1
     6    11    16   ar
     7    11    12   ar
     8    12    13   ar
     9    13    14   ar
    10    14    15   ar
    11    14     1    1
    12    15    16   ar
    13    16    17    1
    14    17    18    1
    15     1     2    2
    16     2     7   ar
    17     2     3   ar
    18     3     4    2
    19     3     5   ar
    20     5    10   ar
    21     5     6   ar
    22     6     7   ar
    23     6     8   ar
    24     8     9   ar
    25     9    10   ar
    26     9    24    1
    27    24    29   ar
    28    24    25   ar
    29    25    26   ar
    30    26    27   ar
    31    27    28   ar
    32    27    30    1
    33    28    29   ar
    34    30    31    1
    35    31    32    1
    36    32    33    2
@<TRIPOS>MOLECULE
ZINC31495319
 34 36 0 0 0
SMALL
GASTEIGER

@<TRIPOS>ATOM
      1 N          23.9766   40.4673   26.6274 N.ar    1  UNL1       -0.2293
      2 C          24.6906   41.6269   26.6387 C.ar    1  UNL1        0.0907
      3 C          25.4003   41.6917   25.4435 C.ar    1  UNL1        0.1189
      4 C          25.0626   40.4749   24.6967 C.ar    1  UNL1        0.1842
      5 N          24.2248   39.7801   25.4362 N.ar    1  UNL1       -0.1583
      6 C          21.4556   39.1619   29.6794 C.ar    1  UNL1        0.0757
      7 C          22.6509   38.4854   29.4208 C.ar    1  UNL1        0.0080
      8 C          23.4789   38.9165   28.4084 C.ar    1  UNL1        0.0194
      9 C          23.1319   40.0299   27.6504 C.ar    1  UNL1        0.0828
     10 C          21.9453   40.7086   27.9082 C.ar    1  UNL1        0.0194
     11 C          21.1101   40.2802   28.9157 C.ar    1  UNL1        0.0080
     12 C          20.5635   38.7001   30.7603 C.2     1  UNL1        0.3412
     13 O          19.5976   38.0114   30.4982 O.2     1  UNL1       -0.2449
     14 O          20.8232   39.0377   32.0386 O.3     1  UNL1       -0.4454
     15 C          19.5222   39.0363   34.0971 C.3     1  UNL1        0.0513
     16 C          19.7763   39.7377   32.7613 C.3     1  UNL1        0.2089
     17 C          24.7086   42.6314   27.7211 C.ar    1  UNL1        0.0180
     18 C          25.6127   42.5075   28.7782 C.ar    1  UNL1        0.0015
     19 C          25.6276   43.4523   29.7831 C.ar    1  UNL1        0.0000
     20 C          24.7419   44.5149   29.7512 C.ar    1  UNL1        0.0000
     21 C          23.8395   44.6407   28.7098 C.ar    1  UNL1        0.0000
     22 C          23.8176   43.7064   27.6953 C.ar    1  UNL1        0.0015
     23 C          25.5737   40.0967   23.3647 C.2     1  UNL1        0.3609
     24 O          26.2152   39.0740   23.2282 O.2     1  UNL1       -0.2431
     25 O          25.3290   40.8856   22.3002 O.3     1  UNL1       -0.4516
     26 C          24.2562   40.4782   21.4105 C.3     1  UNL1        0.1366
     27 C          23.1307   39.8402   22.2275 C.3     1  UNL1        0.0437
     28 C          23.7167   41.7024   20.6682 C.3     1  UNL1        0.0437
     29 C          24.7907   39.4626   20.3987 C.3     1  UNL1        0.0437
     30 C          26.3071   42.7658   25.0143 C.2     1  UNL1        0.3444
     31 O          25.9963   43.4902   24.0889 O.2     1  UNL1       -0.2448
     32 O          27.4835   42.9477   25.6471 O.3     1  UNL1       -0.4454
     33 C          28.0144   44.2990   25.6759 C.3     1  UNL1        0.2089
     34 C          27.3667   45.0770   26.8231 C.3     1  UNL1        0.0513
@<TRIPOS>BOND
     1    15    16    1
     2    16    14    1
     3    14    12    1
     4    12    13    2
     5    12     6    1
     6     6    11   ar
     7     6     7   ar
     8     7     8   ar
     9     8     9   ar
    10     9    10   ar
    11     9     1    1
    12    10    11   ar
    13     1     5   ar
    14     1     2   ar
    15     2     3   ar
    16     2    17    1
    17     3     4   ar
    18     3    30    1
    19     4     5   ar
    20     4    23    1
    21    23    24    2
    22    23    25    1
    23    25    26    1
    24    26    27    1
    25    26    28    1
    26    26    29    1
    27    30    31    2
    28    30    32    1
    29    32    33    1
    30    33    34    1
    31    17    22   ar
    32    17    18   ar
    33    18    19   ar
    34    19    20   ar
    35    20    21   ar
    36    21    22   ar
@<TRIPOS>MOLECULE
ZINC28184727
 33 35 0 0 0
SMALL
GASTEIGER

@<TRIPOS>ATOM
      1 C          26.7480   39.2586   26.3551 C.3     1  UNL1        0.2105
      2 O          27.2911   37.9287   26.5665 O.3     1  UNL1       -0.4454
      3 C          26.4101   36.9118   26.6334 C.2     1  UNL1        0.3409
      4 O          25.4544   36.8860   25.8841 O.2     1  UNL1       -0.2449
      5 C          27.1612   34.2705   25.7221 C.3     1  UNL1        0.0312
      6 C          26.9690   34.5496   27.1905 C.ar    1  UNL1       -0.0155
      7 C          27.1507   33.5421   28.1154 C.ar    1  UNL1       -0.0027
      8 C          26.9745   33.7966   29.4638 C.ar    1  UNL1        0.0196
      9 C          26.6151   35.0617   29.8944 C.ar    1  UNL1        0.1224
     10 C          26.4354   36.0794   28.9811 C.ar    1  UNL1        0.0260
     11 C          26.6064   35.8281   27.6180 C.ar    1  UNL1        0.0730
     12 S          26.3934   35.3749   31.6141 S.O2    1  UNL1        0.0634
     13 O          26.3918   36.7869   31.7730 O.2     1  UNL1       -0.1528
     14 O          25.3103   34.5591   32.0392 O.2     1  UNL1       -0.1528
     15 N          27.7429   34.8125   32.3920 N.3     1  UNL1       -0.1526
     16 C          27.6776   33.5712   33.1673 C.3     1  UNL1        0.1150
     17 C          29.0020   35.5562   32.3048 C.3     1  UNL1        0.1150
     18 C          26.1765   39.7911   27.6706 C.3     1  UNL1        0.0698
     19 C          24.7154   40.1961   27.4652 C.3     1  UNL1        0.1203
     20 C          23.8148   39.1619   28.0897 C.ar    1  UNL1       -0.0058
     21 C          22.7441   38.6562   27.3762 C.ar    1  UNL1       -0.0030
     22 C          21.9209   37.7039   27.9473 C.ar    1  UNL1       -0.0003
     23 C          22.1622   37.2646   29.2356 C.ar    1  UNL1       -0.0000
     24 C          23.2295   37.7743   29.9511 C.ar    1  UNL1       -0.0003
     25 C          24.0559   38.7228   29.3781 C.ar    1  UNL1       -0.0030
     26 C          24.4691   41.5340   28.1134 C.ar    1  UNL1       -0.0058
     27 C          23.1905   42.0579   28.1531 C.ar    1  UNL1       -0.0030
     28 C          22.9637   43.2830   28.7521 C.ar    1  UNL1       -0.0003
     29 C          24.0172   43.9888   29.3025 C.ar    1  UNL1       -0.0000
     30 C          25.2967   43.4676   29.2577 C.ar    1  UNL1       -0.0003
     31 C          25.5226   42.2401   28.6634 C.ar    1  UNL1       -0.0030
     32 C          24.4300   40.2892   26.0241 C.1     1  UNL1        0.0795
     33 N          24.2098   40.3612   24.9120 N.1     1  UNL1       -0.1953
@<TRIPOS>BOND
     1     5     6    1
     2     6    11   ar
     3     6     7   ar
     4     7     8   ar
     5     8     9   ar
     6     9    10   ar
     7     9    12    1
     8    10    11   ar
     9    11     3    1
    10     3     4    2
    11     3     2    1
    12     2     1    1
    13     1    18    1
    14    18    19    1
    15    19    32    1
    16    19    20    1
    17    19    26    1
    18    32    33    3
    19    20    25   ar
    20    20    21   ar
    21    21    22   ar
    22    22    23   ar
    23    23    24   ar
    24    24    25   ar
    25    26    31   ar
    26    26    27   ar
    27    27    28   ar
    28    28    29   ar
    29    29    30   ar
    30    30    31   ar
    31    12    13    2
    32    12    14    2
    33    12    15    1
    34    15    16    1
    35    15    17    1
@<TRIPOS>MOLECULE
ZINC02201061
 35 38 0 0 0
SMALL
GASTEIGER

@<TRIPOS>ATOM
      1 C          24.5637   40.8323   25.7523 C.ar    1  UNL1        0.0890
      2 C          23.9604   39.5806   25.4645 C.ar    1  UNL1        0.1384
      3 N          23.6341   39.2865   24.2158 N.ar    1  UNL1       -0.2130
      4 C          23.8570   40.1380   23.2130 C.ar    1  UNL1        0.1514
      5 C          23.4878   39.7675   21.9079 C.ar    1  UNL1        0.0376
      6 C          23.7109   40.6299   20.8751 C.ar    1  UNL1        0.0046
      7 C          24.3038   41.8736   21.1293 C.ar    1  UNL1        0.0192
      8 C          24.6529   42.2128   22.3910 C.ar    1  UNL1        0.0844
      9 N          24.4343   41.3577   23.4295 N.ar    1  UNL1       -0.2577
     10 C          24.7954   41.7291   24.6768 C.ar    1  UNL1        0.2685
     11 O          25.3107   42.8149   24.8753 O.2     1  UNL1       -0.2665
     12 C          26.2431   41.0530   27.4807 C.2     1  UNL1        0.1440
     13 C          24.9223   41.1746   27.0668 C.2     1  UNL1        0.0244
     14 C          26.6399   41.5216   28.8103 C.2     1  UNL1        0.3510
     15 O          26.4762   40.8069   29.7810 O.2     1  UNL1       -0.2441
     16 O          27.1870   42.7457   28.9586 O.3     1  UNL1       -0.4450
     17 C          25.3378   44.2351   29.4086 C.3     1  UNL1        0.0513
     18 C          26.4522   43.8528   28.4327 C.3     1  UNL1        0.2089
     19 C          27.2164   40.4696   26.6072 C.1     1  UNL1        0.1070
     20 N          27.9884   40.0067   25.9143 N.1     1  UNL1       -0.1906
     21 N          23.7162   38.6799   26.4753 N.pl3   1  UNL1       -0.2849
     22 C          22.3281   38.2013   26.4300 C.3     1  UNL1        0.1192
     23 C          21.6444   38.5190   27.7349 C.ar    1  UNL1       -0.0024
     24 C          21.6741   39.8074   28.2349 C.ar    1  UNL1       -0.0026
     25 C          21.0424   40.1001   29.4291 C.ar    1  UNL1       -0.0003
     26 C          20.3904   39.1020   30.1289 C.ar    1  UNL1       -0.0000
     27 C          20.3656   37.8124   29.6316 C.ar    1  UNL1       -0.0003
     28 C          20.9924   37.5209   28.4345 C.ar    1  UNL1       -0.0026
     29 C          24.6622   37.5574   26.4199 C.3     1  UNL1        0.1192
     30 C          25.3727   37.4334   27.7432 C.ar    1  UNL1       -0.0024
     31 C          24.7038   37.7260   28.9169 C.ar    1  UNL1       -0.0026
     32 C          25.3539   37.6073   30.1310 C.ar    1  UNL1       -0.0003
     33 C          26.6762   37.2064   30.1706 C.ar    1  UNL1       -0.0000
     34 C          27.3469   36.9192   28.9965 C.ar    1  UNL1       -0.0003
     35 C          26.6950   37.0324   27.7828 C.ar    1  UNL1       -0.0026
@<TRIPOS>BOND
     1    17    18    1
     2    18    16    1
     3    16    14    1
     4    14    15    2
     5    14    12    1
     6    12    13    2
     7    12    19    1
     8    13     1    1
     9     1    10   ar
    10     1     2   ar
    11     2     3   ar
    12     2    21    1
    13     3     4   ar
    14     4     9   ar
    15     4     5   ar
    16     5     6   ar
    17     6     7   ar
    18     7     8   ar
    19     8     9   ar
    20     9    10   ar
    21    10    11    2
    22    21    22    1
    23    21    29    1
    24    22    23    1
    25    23    28   ar
    26    23    24   ar
    27    24    25   ar
    28    25    26   ar
    29    26    27   ar
    30    27    28   ar
    31    29    30    1
    32    30    35   ar
    33    30    31   ar
    34    31    32   ar
    35    32    33   ar
    36    33    34   ar
    37    34    35   ar
    38    19    20    3
@<TRIPOS>MOLECULE
ZINC10531391
 31 33 0 0 0
SMALL
GASTEIGER

@<TRIPOS>ATOM
      1 C          25.0028   37.6655   27.2710 C.ar    1  UNL1        0.1725
      2 N          23.7870   37.5822   27.7750 N.ar    1  UNL1       -0.2241
      3 C          22.7254   37.8752   27.0502 C.ar    1  UNL1        0.1112
      4 C          22.9084   38.2674   25.7655 C.ar    1  UNL1        0.0566
      5 S          24.6903   38.2021   25.6493 S.2     1  UNL1       -0.0505
      6 N          26.2232   37.3978   27.8834 N.am    1  UNL1       -0.2175
      7 C          27.1669   38.3574   27.9533 C.2     1  UNL1        0.2350
      8 O          26.9523   39.4544   27.4824 O.2     1  UNL1       -0.2741
      9 C          28.4887   38.0675   28.6165 C.3     1  UNL1        0.0956
     10 C          27.2250   32.2646   30.0850 C.3     1  UNL1        0.0310
     11 C          26.9594   33.6280   29.5005 C.ar    1  UNL1       -0.0224
     12 C          27.1745   33.8549   28.1534 C.ar    1  UNL1       -0.0073
     13 C          26.9316   35.1032   27.6146 C.ar    1  UNL1       -0.0084
     14 C          26.4709   36.1309   28.4270 C.ar    1  UNL1        0.0519
     15 C          26.2560   35.8998   29.7792 C.ar    1  UNL1       -0.0084
     16 C          26.5007   34.6493   30.3120 C.ar    1  UNL1       -0.0073
     17 C          25.7567   37.0124   30.6645 C.3     1  UNL1        0.0323
     18 C          27.1662   35.3497   26.1465 C.3     1  UNL1        0.0323
     19 C          21.3406   37.7760   27.6364 C.3     1  UNL1        0.2544
     20 O          21.3884   38.1063   29.0495 O.3     1  UNL1       -0.4418
     21 C          20.7286   39.2079   29.4405 C.2     1  UNL1        0.3178
     22 O          20.4894   40.0837   28.6433 O.2     1  UNL1       -0.2501
     23 C          20.2864   39.3523   30.8740 C.3     1  UNL1        0.1177
     24 C          18.9887   38.5706   31.0884 C.3     1  UNL1        0.0813
     25 C          18.1878   39.2189   32.1881 C.2     1  UNL1        0.1795
     26 O          16.9819   39.3180   32.0836 O.2     1  UNL1       -0.2908
     27 C          18.8395   39.7111   33.3404 C.ar    1  UNL1        0.0641
     28 C          18.8590   41.0047   33.8520 C.ar    1  UNL1        0.0099
     29 C          19.5757   41.2087   35.0016 C.ar    1  UNL1        0.0076
     30 C          20.2314   40.1612   35.5714 C.ar    1  UNL1        0.0355
     31 S          19.8592   38.8377   34.5154 S.2     1  UNL1       -0.0836
@<TRIPOS>BOND
     1    10    11    1
     2    11    16   ar
     3    11    12   ar
     4    12    13   ar
     5    13    14   ar
     6    13    18    1
     7    14    15   ar
     8    14     6    1
     9    15    16   ar
    10    15    17    1
    11     6     1    1
    12     6     7   am
    13     1     5   ar
    14     1     2   ar
    15     2     3   ar
    16     3     4   ar
    17     3    19    1
    18     4     5   ar
    19    19    20    1
    20    20    21    1
    21    21    22    2
    22    21    23    1
    23    23    24    1
    24    24    25    1
    25    25    26    2
    26    25    27    1
    27    27    31   ar
    28    27    28   ar
    29    28    29   ar
    30    29    30   ar
    31    30    31   ar
    32     7     8    2
    33     7     9    1
@<TRIPOS>MOLECULE
ZINC23550600
 33 36 0 0 0
SMALL
GASTEIGER

@<TRIPOS>ATOM
      1 C          14.0166   37.9797   29.2331 C.ar    1  UNL1        0.0771
      2 C          13.3776   38.3770   30.4150 C.ar    1  UNL1        0.0067
      3 C          14.1040   38.8179   31.4835 C.ar    1  UNL1        0.0065
      4 C          15.4952   38.8739   31.4026 C.ar    1  UNL1        0.0742
      5 C          16.1556   38.4770   30.2178 C.ar    1  UNL1        0.0882
      6 C          15.4012   38.0279   29.1303 C.ar    1  UNL1        0.0258
      7 N          17.5069   38.5401   30.1621 N.ar    1  UNL1       -0.2221
      8 C          18.2164   38.9603   31.1801 C.ar    1  UNL1        0.1774
      9 N          17.6587   39.3576   32.3638 N.ar    1  UNL1       -0.2542
     10 C          16.3161   39.3416   32.5303 C.ar    1  UNL1        0.2675
     11 O          15.8062   39.6968   33.5769 O.2     1  UNL1       -0.2665
     12 C          18.4836   39.7895   33.4102 C.ar    1  UNL1        0.0687
     13 C          18.6526   41.1471   33.6481 C.ar    1  UNL1        0.0177
     14 C          19.4617   41.5696   34.6846 C.ar    1  UNL1        0.0015
     15 C          20.1130   40.6425   35.4773 C.ar    1  UNL1        0.0001
     16 C          19.9513   39.2898   35.2394 C.ar    1  UNL1        0.0015
     17 C          19.1387   38.8610   34.2083 C.ar    1  UNL1        0.0177
     18 C          13.2111   37.5050   28.0865 C.2     1  UNL1        0.3414
     19 O          13.7099   37.4356   26.9815 O.2     1  UNL1       -0.2449
     20 C          11.3094   36.3461   27.2274 C.3     1  UNL1        0.2560
     21 O          11.9247   37.1498   28.2684 O.3     1  UNL1       -0.4413
     22 S          19.9704   39.0087   31.0191 S.3     1  UNL1       -0.0769
     23 C          20.1253   38.8594   29.2219 C.3     1  UNL1        0.0656
     24 C          21.3512   38.0082   28.8847 C.3     1  UNL1        0.0202
     25 C          22.6229   38.8039   29.1856 C.3     1  UNL1        0.0701
     26 C          22.9555   39.6835   28.0079 C.2     1  UNL1        0.1731
     27 O          23.0466   39.2026   26.8986 O.2     1  UNL1       -0.2913
     28 C          23.1697   41.1262   28.2044 C.ar    1  UNL1        0.0347
     29 C          24.4365   41.6828   28.0011 C.ar    1  UNL1        0.0028
     30 C          24.6276   43.0365   28.1811 C.ar    1  UNL1        0.0001
     31 C          23.5726   43.8418   28.5737 C.ar    1  UNL1        0.0000
     32 C          22.3175   43.2974   28.7829 C.ar    1  UNL1        0.0001
     33 C          22.1088   41.9467   28.6009 C.ar    1  UNL1        0.0028
@<TRIPOS>BOND
     1    20    21    1
     2    21    18    1
     3    18    19    2
     4    18     1    1
     5     1     6   ar
     6     1     2   ar
     7     2     3   ar
     8     3     4   ar
     9     4    10   ar
    10     4     5   ar
    11     5     6   ar
    12     5     7   ar
    13     7     8   ar
    14     8     9   ar
    15     8    22    1
    16     9    10   ar
    17     9    12    1
    18    10    11    2
    19    12    17   ar
    20    12    13   ar
    21    13    14   ar
    22    14    15   ar
    23    15    16   ar
    24    16    17   ar
    25    22    23    1
    26    23    24    1
    27    24    25    1
    28    25    26    1
    29    26    27    2
    30    26    28    1
    31    28    33   ar
    32    28    29   ar
    33    29    30   ar
    34    30    31   ar
    35    31    32   ar
    36    32    33   ar
@<TRIPOS>MOLECULE
ZINC02766888
 32 34 0 0 0
SMALL
GASTEIGER

@<TRIPOS>ATOM
      1 C          22.2342   40.1096   28.8760 C.ar    1  UNL1        0.0593
      2 C          23.5280   39.5840   28.4829 C.ar    1  UNL1        0.0114
      3 C          23.7423   38.2620   28.7028 C.ar    1  UNL1        0.0338
      4 S          22.2147   37.7154   29.4361 S.2     1  UNL1       -0.1111
      5 C          21.3415   39.2100   29.4448 C.ar    1  UNL1       -0.0850
      6 C          24.5651   40.4486   27.8707 C.ar    1  UNL1        0.0039
      7 C          24.4444   40.8490   26.5408 C.ar    1  UNL1        0.0033
      8 C          25.4081   41.6575   25.9729 C.ar    1  UNL1        0.0400
      9 C          26.5027   42.0652   26.7198 C.ar    1  UNL1        0.1724
     10 C          26.6314   41.6642   28.0469 C.ar    1  UNL1        0.1724
     11 C          25.6657   40.8578   28.6222 C.ar    1  UNL1        0.0401
     12 O          27.7060   42.0655   28.7775 O.3     1  UNL1       -0.4684
     13 C          28.8423   41.1990   28.7896 C.3     1  UNL1        0.2526
     14 O          27.4526   42.8580   26.1550 O.3     1  UNL1       -0.4684
     15 C          27.1843   44.2609   26.1106 C.3     1  UNL1        0.2526
     16 C          21.8890   41.5183   28.6881 C.2     1  UNL1        0.3399
     17 O          20.9770   41.8272   27.9445 O.2     1  UNL1       -0.2449
     18 O          22.5782   42.4750   29.3436 O.3     1  UNL1       -0.4455
     19 C          22.4962   43.8041   28.8253 C.3     1  UNL1        0.2088
     20 C          24.7821   44.5508   29.5035 C.3     1  UNL1        0.0040
     21 C          23.8716   44.2379   28.3143 C.3     1  UNL1        0.0475
     22 N          20.0584   39.4509   29.9063 N.am    1  UNL1       -0.6053
     23 C          19.5751   38.7495   30.9506 C.2     1  UNL1        0.0860
     24 O          19.1963   37.6050   30.7913 O.2     1  UNL1       -0.3128
     25 C          19.5055   39.3699   32.2868 C.ar    1  UNL1        0.0704
     26 C          18.3016   39.9136   32.7484 C.ar    1  UNL1        0.1435
     27 C          18.2442   40.4884   34.0040 C.ar    1  UNL1        0.0298
     28 C          19.3749   40.5371   34.7991 C.ar    1  UNL1        0.0046
     29 C          20.5704   40.0074   34.3485 C.ar    1  UNL1        0.0298
     30 C          20.6445   39.4236   33.0979 C.ar    1  UNL1        0.1435
     31 F          21.8132   38.9066   32.6597 F       1  UNL1       -0.2041
     32 F          17.1974   39.8720   31.9711 F       1  UNL1       -0.2041
@<TRIPOS>UNITY_ATOM_ATTR
22 1
charge -1
@<TRIPOS>BOND
     1    20    21    1
     2    21    19    1
     3    19    18    1
     4    18    16    1
     5    16    17    2
     6    16     1    1
     7     1     5   ar
     8     1     2   ar
     9     2     3   ar
    10     2     6    1
    11     3     4   ar
    12     4     5   ar
    13     5    22    1
    14    22    23    1
    15    23    24    2
    16    23    25    1
    17    25    30   ar
    18    25    26   ar
    19    26    27   ar
    20    26    32    1
    21    27    28   ar
    22    28    29   ar
    23    29    30   ar
    24    30    31    1
    25     6    11   ar
    26     6     7   ar
    27     7     8   ar
    28     8     9   ar
    29     9    10   ar
    30     9    14    1
    31    10    11   ar
    32    10    12    1
    33    12    13    1
    34    14    15    1
@<TRIPOS>MOLECULE
ZINC14637188
 30 32 0 0 0
SMALL
GASTEIGER

@<TRIPOS>ATOM
      1 C          14.8372   38.5250   29.1150 C.2     1  UNL1        0.0083
      2 C          13.6346   37.9335   29.3089 C.2     1  UNL1        0.0494
      3 C          12.7267   37.7223   28.1709 C.ar    1  UNL1        0.1164
      4 N          11.9674   38.5988   27.5444 N.ar    1  UNL1       -0.2378
      5 C          11.1808   38.2652   26.5112 C.ar    1  UNL1        0.0879
      6 C          10.3245   39.1049   25.7579 C.ar    1  UNL1        0.0196
      7 C           9.5868   38.6062   24.7308 C.ar    1  UNL1        0.0016
      8 C           9.6399   37.2644   24.3785 C.ar    1  UNL1        0.0006
      9 C          10.4591   36.4086   25.0913 C.ar    1  UNL1        0.0080
     10 C          11.2128   36.9027   26.1276 C.ar    1  UNL1        0.0485
     11 S          12.3715   36.2117   27.2836 S.2     1  UNL1       -0.0660
     12 C          17.2629   39.5447   32.4479 C.ar    1  UNL1        0.1826
     13 C          17.7530   38.6790   31.4725 C.ar    1  UNL1        0.1731
     14 C          16.9669   38.3445   30.3862 C.ar    1  UNL1        0.0401
     15 C          15.6783   38.8769   30.2689 C.ar    1  UNL1        0.0046
     16 C          15.1946   39.7492   31.2494 C.ar    1  UNL1        0.0147
     17 C          15.9847   40.0738   32.3333 C.ar    1  UNL1        0.0946
     18 CL         15.3813   41.1518   33.5528 Cl      1  UNL1       -0.0790
     19 O          18.0389   39.8720   33.5157 O.3     1  UNL1       -0.4715
     20 C          18.8131   41.0687   33.4126 C.3     1  UNL1        0.2056
     21 C          20.4789   40.3840   35.1442 C.3     1  UNL1        0.0040
     22 C          19.4058   41.4121   34.7807 C.3     1  UNL1        0.0473
     23 O          19.0059   38.1631   31.5892 O.3     1  UNL1       -0.4724
     24 C          19.8688   38.2925   30.4576 C.3     1  UNL1        0.2057
     25 C          20.7943   39.4945   30.6568 C.3     1  UNL1        0.0512
     26 S          13.1575   37.4165   30.9244 S.3     1  UNL1       -0.1056
     27 C          11.4252   37.9378   31.0582 C.3     1  UNL1        0.1037
     28 C          11.3552   39.4427   31.0984 C.2     1  UNL1        0.0616
     29 O          12.1013   40.0632   31.8182 O.co2   1  UNL1       -0.5483
     30 O          10.4639   40.0938   30.3344 O.co2   1  UNL1       -0.5483
@<TRIPOS>UNITY_ATOM_ATTR
30 1
charge -1
@<TRIPOS>BOND
     1    21    22    1
     2    22    20    1
     3    20    19    1
     4    19    12    1
     5    12    17   ar
     6    12    13   ar
     7    13    14   ar
     8    13    23    1
     9    14    15   ar
    10    15    16   ar
    11    15     1    1
    12    16    17   ar
    13    17    18    1
    14     1     2    2
    15     2     3    1
    16     2    26    1
    17     3    11   ar
    18     3     4   ar
    19     4     5   ar
    20     5    10   ar
    21     5     6   ar
    22     6     7   ar
    23     7     8   ar
    24     8     9   ar
    25     9    10   ar
    26    10    11   ar
    27    26    27    1
    28    27    28    1
    29    28    29   ar
    30    28    30   ar
    31    23    24    1
    32    24    25    1
@<TRIPOS>MOLECULE
ZINC09832510
 32 34 0 0 0
SMALL
GASTEIGER

@<TRIPOS>ATOM
      1 C          11.4700   37.2839   25.8785 C.ar    1  UNL1        0.1222
      2 C          12.6556   37.9332   25.5835 C.ar    1  UNL1        0.0201
      3 C          13.6422   38.0434   26.5414 C.ar    1  UNL1        0.0059
      4 C          13.4464   37.4889   27.8075 C.ar    1  UNL1        0.0538
      5 C          12.2499   36.8305   28.0969 C.ar    1  UNL1        0.0059
      6 C          11.2696   36.7317   27.1314 C.ar    1  UNL1        0.0201
      7 C          14.5012   37.5982   28.8369 C.2     1  UNL1        0.2509
      8 O          15.0145   36.5939   29.2900 O.2     1  UNL1       -0.2698
      9 N          14.8940   38.8113   29.2731 N.am    1  UNL1       -0.2606
     10 H          14.4783   39.6247   28.9059 H       1  UNL1        0.1571
     11 C          15.8821   38.9137   30.2373 C.ar    1  UNL1        0.1657
     12 N          17.1715   38.6957   30.1213 N.ar    1  UNL1       -0.2239
     13 C          18.0274   38.8363   31.1565 C.ar    1  UNL1        0.0892
     14 C          19.4270   38.6340   31.1659 C.ar    1  UNL1        0.0193
     15 C          20.1537   38.8211   32.3124 C.ar    1  UNL1       -0.0027
     16 C          19.5493   39.2136   33.4981 C.ar    1  UNL1       -0.0219
     17 C          18.1825   39.4208   33.5252 C.ar    1  UNL1        0.0038
     18 C          17.4463   39.2356   32.3817 C.ar    1  UNL1        0.0494
     19 S          15.7281   39.3840   31.9547 S.2     1  UNL1       -0.0514
     20 C          20.3742   39.4125   34.7436 C.3     1  UNL1        0.0224
     21 C          20.2214   40.8544   35.2317 C.3     1  UNL1        0.0047
     22 C          19.8932   38.4516   35.8326 C.3     1  UNL1        0.0047
     23 S          10.2126   37.1532   24.6511 S.O2    1  UNL1        0.0633
     24 O           9.0059   36.8484   25.3368 O.2     1  UNL1       -0.1528
     25 O          10.7343   36.3239   23.6220 O.2     1  UNL1       -0.1528
     26 N          10.0146   38.6589   23.9909 N.3     1  UNL1       -0.1555
     27 C           9.2219   39.6694   24.6958 C.3     1  UNL1        0.0958
     28 C          10.0209   40.2058   25.8853 C.3     1  UNL1        0.0206
     29 C          10.6321   38.9805   22.7019 C.3     1  UNL1        0.0958
     30 C          10.7550   40.4990   22.5600 C.3     1  UNL1        0.0191
     31 C          12.1684   42.4194   23.3062 C.3     1  UNL1        0.0000
     32 C          12.1718   40.9338   22.9400 C.3     1  UNL1        0.0015
@<TRIPOS>BOND
     1    31    32    1
     2    32    30    1
     3    30    29    1
     4    29    26    1
     5    26    27    1
     6    26    23    1
     7    27    28    1
     8    23    24    2
     9    23    25    2
    10    23     1    1
    11     1     6   ar
    12     1     2   ar
    13     2     3   ar
    14     3     4   ar
    15     4     5   ar
    16     4     7    1
    17     5     6   ar
    18     7     8    2
    19     7     9   am
    20     9    11    1
    21    11    19   ar
    22    11    12   ar
    23    12    13   ar
    24    13    18   ar
    25    13    14   ar
    26    14    15   ar
    27    15    16   ar
    28    16    17   ar
    29    16    20    1
    30    17    18   ar
    31    18    19   ar
    32    20    21    1
    33    20    22    1
    34     9    10    1
@<TRIPOS>MOLECULE
ZINC17833999
 33 35 0 0 0
SMALL
GASTEIGER

@<TRIPOS>ATOM
      1 O          19.7725   38.0502   29.2887 O.3     1  UNL1       -0.4387
      2 C          20.4680   38.7082   28.3378 C.2     1  UNL1        0.3418
      3 O          20.5623   38.2395   27.2192 O.2     1  UNL1       -0.2449
      4 C          21.0886   39.9458   28.6424 C.2     1  UNL1        0.0820
      5 C          22.2514   40.2841   28.0431 C.2     1  UNL1        0.0098
      6 C          22.8946   41.5666   28.3589 C.ar    1  UNL1        0.0374
      7 C          22.1147   42.6918   28.6538 C.ar    1  UNL1        0.0032
      8 C          22.7225   43.8902   28.9548 C.ar    1  UNL1        0.0033
      9 C          24.1043   43.9940   28.9567 C.ar    1  UNL1        0.0401
     10 C          24.8899   42.8923   28.6615 C.ar    1  UNL1        0.1726
     11 C          24.2931   41.6725   28.3609 C.ar    1  UNL1        0.1778
     12 O          26.2454   43.0030   28.6661 O.3     1  UNL1       -0.4684
     13 C          26.8064   44.1305   27.9907 C.3     1  UNL1        0.2526
     14 O          25.0600   40.5904   28.0706 O.3     1  UNL1       -0.4205
     15 C          25.6474   39.8969   29.1734 C.3     1  UNL1        0.5087
     16 F          24.7583   38.9216   29.6377 F       1  UNL1       -0.1550
     17 F          26.8360   39.2856   28.7602 F       1  UNL1       -0.1550
     18 C          19.6617   38.6821   30.5655 C.3     1  UNL1        0.2544
     19 C          16.1258   39.8031   33.9721 C.3     1  UNL1        0.0313
     20 C          16.5292   39.3306   32.5990 C.ar    1  UNL1       -0.0129
     21 C          15.5628   38.9774   31.6419 C.ar    1  UNL1        0.0139
     22 C          14.1894   39.0524   31.9313 C.ar    1  UNL1        0.0012
     23 C          13.2812   38.7015   30.9798 C.ar    1  UNL1        0.0001
     24 C          13.6958   38.2702   29.7214 C.ar    1  UNL1        0.0015
     25 C          15.0177   38.1861   29.4072 C.ar    1  UNL1        0.0191
     26 C          15.9866   38.5385   30.3621 C.ar    1  UNL1        0.0807
     27 N          17.2915   38.4637   30.0746 N.ar    1  UNL1       -0.2458
     28 C          18.2083   38.7876   30.9493 C.ar    1  UNL1        0.1086
     29 C          17.8690   39.2362   32.2384 C.ar    1  UNL1        0.0888
     30 C          18.9265   39.6002   33.2021 C.2     1  UNL1        0.3423
     31 O          19.4773   38.7361   33.8546 O.2     1  UNL1       -0.2449
     32 O          19.2807   40.8907   33.3580 O.3     1  UNL1       -0.4413
     33 C          19.5410   41.3439   34.7127 C.3     1  UNL1        0.2560
@<TRIPOS>BOND
     1    19    20    1
     2    20    29   ar
     3    20    21   ar
     4    21    26   ar
     5    21    22   ar
     6    22    23   ar
     7    23    24   ar
     8    24    25   ar
     9    25    26   ar
    10    26    27   ar
    11    27    28   ar
    12    28    29   ar
    13    28    18    1
    14    29    30    1
    15    30    31    2
    16    30    32    1
    17    32    33    1
    18    18     1    1
    19     1     2    1
    20     2     3    2
    21     2     4    1
    22     4     5    2
    23     5     6    1
    24     6    11   ar
    25     6     7   ar
    26     7     8   ar
    27     8     9   ar
    28     9    10   ar
    29    10    11   ar
    30    10    12    1
    31    11    14    1
    32    14    15    1
    33    15    16    1
    34    15    17    1
    35    12    13    1
@<TRIPOS>MOLECULE
ZINC25491817
 33 35 0 0 0
SMALL
GASTEIGER

@<TRIPOS>ATOM
      1 N          22.4717   39.8489   28.3425 N.ar    1  UNL1       -0.2913
      2 C          22.0601   38.9030   29.2605 C.ar    1  UNL1        0.1649
      3 N          22.8649   37.8795   29.1900 N.ar    1  UNL1       -0.1452
      4 N          23.8332   38.1553   28.2151 N.ar    1  UNL1       -0.1773
      5 C          23.5623   39.3753   27.7077 C.ar    1  UNL1        0.1849
      6 S          24.4445   40.1775   26.4791 S.2     1  UNL1       -0.0110
      7 C          20.8975   39.0269   30.1664 C.ar    1  UNL1        0.0360
      8 C          19.6286   38.6396   29.7324 C.ar    1  UNL1        0.0043
      9 C          18.5481   38.7516   30.5802 C.ar    1  UNL1        0.0146
     10 C          18.7190   39.2600   31.8632 C.ar    1  UNL1        0.0478
     11 C          19.9810   39.6515   32.2963 C.ar    1  UNL1        0.0146
     12 C          21.0660   39.5368   31.4548 C.ar    1  UNL1        0.0043
     13 N          17.6222   39.3776   32.7172 N.pl3   1  UNL1       -0.3075
     14 C          17.8288   39.6549   34.1409 C.3     1  UNL1        0.0908
     15 C          17.8583   41.1679   34.3667 C.3     1  UNL1        0.0232
     16 C          16.2639   39.2238   32.1904 C.3     1  UNL1        0.0908
     17 C          15.2788   39.0849   33.3528 C.3     1  UNL1        0.0232
     18 C          22.5795   42.2341   28.8724 C.3     1  UNL1        0.0266
     19 C          21.8326   41.1447   28.1002 C.3     1  UNL1        0.1095
     20 C          24.9350   37.2763   27.8155 C.3     1  UNL1        0.2437
     21 N          26.0078   37.3498   28.8164 N.4     1  UNL1        0.3031
     22 C          27.1975   38.0121   28.2651 C.3     1  UNL1        0.1698
     23 H          25.6697   37.9120   29.5974 H       1  UNL1        0.2096
     24 C          26.3397   36.0147   29.3313 C.3     1  UNL1        0.1353
     25 C          26.2720   36.0259   30.8368 C.ar    1  UNL1        0.0344
     26 C          25.1158   35.6244   31.4798 C.ar    1  UNL1        0.0015
     27 C          25.0535   35.6350   32.8604 C.ar    1  UNL1        0.0016
     28 C          26.1474   36.0473   33.5986 C.ar    1  UNL1        0.0241
     29 C          27.3015   36.4537   32.9557 C.ar    1  UNL1        0.1428
     30 C          27.3656   36.4379   31.5747 C.ar    1  UNL1        0.0255
     31 N          28.4706   36.9007   33.7458 N.pl3   1  UNL1        0.0577
     32 O          29.2848   36.0863   34.1427 O.2     1  UNL1       -0.1261
     33 O          28.6184   38.0829   33.9992 O.2     1  UNL1       -0.1261
@<TRIPOS>UNITY_ATOM_ATTR
21 1
charge 1
@<TRIPOS>BOND
     1    18    19    1
     2    19     1    1
     3     1     5   ar
     4     1     2   ar
     5     2     3   ar
     6     2     7    1
     7     3     4   ar
     8     4     5   ar
     9     4    20    1
    10     5     6    2
    11    20    21    1
    12    21    22    1
    13    21    24    1
    14    24    25    1
    15    25    30   ar
    16    25    26   ar
    17    26    27   ar
    18    27    28   ar
    19    28    29   ar
    20    29    30   ar
    21    29    31    1
    22    31    32    2
    23    31    33    2
    24     7    12   ar
    25     7     8   ar
    26     8     9   ar
    27     9    10   ar
    28    10    11   ar
    29    10    13    1
    30    11    12   ar
    31    13    14    1
    32    13    16    1
    33    14    15    1
    34    16    17    1
    35    21    23    1
@<TRIPOS>MOLECULE
ZINC08606782
 33 35 0 0 0
SMALL
GASTEIGER

@<TRIPOS>ATOM
      1 C          23.7945   38.9534   28.2507 C.ar    1  UNL1        0.1166
      2 C          22.6013   39.2428   28.9370 C.ar    1  UNL1        0.0919
      3 C          22.2693   38.4786   30.0769 C.ar    1  UNL1        0.0131
      4 C          23.1400   37.4608   30.4646 C.ar    1  UNL1        0.0198
      5 C          24.2998   37.2402   29.7286 C.ar    1  UNL1        0.0819
      6 N          24.5882   37.9791   28.6631 N.ar    1  UNL1       -0.2385
      7 C          25.2301   36.1621   30.1409 C.ar    1  UNL1        0.0177
      8 C          26.3467   35.8651   29.3607 C.ar    1  UNL1        0.0015
      9 C          27.2116   34.8634   29.7519 C.ar    1  UNL1        0.0000
     10 C          26.9668   34.1478   30.9102 C.ar    1  UNL1        0.0000
     11 C          25.8579   34.4349   31.6859 C.ar    1  UNL1        0.0000
     12 C          24.9887   35.4376   31.3073 C.ar    1  UNL1        0.0015
     13 C          21.0276   38.7478   30.8375 C.ar    1  UNL1        0.0010
     14 C          19.7945   38.3353   30.3316 C.ar    1  UNL1        0.0031
     15 C          18.6412   38.5827   31.0448 C.ar    1  UNL1        0.0369
     16 C          18.7045   39.2517   32.2603 C.ar    1  UNL1        0.1387
     17 C          19.9297   39.6688   32.7640 C.ar    1  UNL1        0.0369
     18 C          21.0876   39.4195   32.0589 C.ar    1  UNL1        0.0031
     19 O          17.5655   39.4989   32.9576 O.3     1  UNL1       -0.4714
     20 C          16.3291   39.3323   32.2610 C.3     1  UNL1        0.2525
     21 C          21.7416   40.2976   28.4911 C.1     1  UNL1        0.1024
     22 N          21.0596   41.1343   28.1374 N.1     1  UNL1       -0.1908
     23 S          24.2352   39.8966   26.8293 S.3     1  UNL1       -0.0863
     24 C          26.0255   40.0112   27.0709 C.3     1  UNL1        0.1284
     25 C          26.4709   41.4351   26.8583 C.2     1  UNL1        0.1731
     26 O          26.3551   41.9480   25.7711 O.2     1  UNL1       -0.2945
     27 C          27.0608   42.2188   28.0023 C.3     1  UNL1        0.1746
     28 C          26.1905   42.0590   29.2222 C.2     1  UNL1        0.3245
     29 O          26.6430   41.5624   30.2264 O.2     1  UNL1       -0.2496
     30 O          24.9125   42.4685   29.1930 O.3     1  UNL1       -0.4520
     31 C          23.1795   44.0655   28.5793 C.3     1  UNL1        0.0473
     32 C          24.6728   43.8559   28.8382 C.3     1  UNL1        0.1691
     33 C          25.1232   44.7611   29.9866 C.3     1  UNL1        0.0473
@<TRIPOS>BOND
     1    31    32    1
     2    32    33    1
     3    32    30    1
     4    30    28    1
     5    28    29    2
     6    28    27    1
     7    27    25    1
     8    25    26    2
     9    25    24    1
    10    24    23    1
    11    23     1    1
    12     1     6   ar
    13     1     2   ar
    14     2     3   ar
    15     2    21    1
    16     3     4   ar
    17     3    13    1
    18     4     5   ar
    19     5     6   ar
    20     5     7    1
    21     7    12   ar
    22     7     8   ar
    23     8     9   ar
    24     9    10   ar
    25    10    11   ar
    26    11    12   ar
    27    13    18   ar
    28    13    14   ar
    29    14    15   ar
    30    15    16   ar
    31    16    17   ar
    32    16    19    1
    33    17    18   ar
    34    19    20    1
    35    21    22    3
@<TRIPOS>MOLECULE
ZINC31458804
 34 36 0 0 0
SMALL
GASTEIGER

@<TRIPOS>ATOM
      1 C          24.2237   38.8573   28.1381 C.ar    1  UNL1        0.0343
      2 C          24.0033   40.2348   28.1679 C.ar    1  UNL1        0.0428
      3 C          25.0042   41.0828   28.6044 C.ar    1  UNL1        0.1725
      4 C          26.2337   40.5621   29.0019 C.ar    1  UNL1        0.1721
      5 C          26.4540   39.1937   28.9670 C.ar    1  UNL1        0.0363
      6 C          25.4566   38.3421   28.5376 C.ar    1  UNL1       -0.0101
      7 C          23.1531   37.9450   27.6774 C.2     1  UNL1        0.1483
      8 C          22.8599   37.8635   26.3811 C.2     1  UNL1        0.0407
      9 O          22.4694   37.1906   28.5774 O.3     1  UNL1       -0.4241
     10 C          21.1564   37.4388   28.7083 C.2     1  UNL1        0.3204
     11 O          20.3511   36.7583   28.1183 O.2     1  UNL1       -0.2497
     12 C          19.3041   38.2390   30.1499 C.3     1  UNL1        0.0111
     13 C          20.6874   38.5704   29.5863 C.3     1  UNL1        0.0900
     14 C          21.6746   38.7644   30.7390 C.3     1  UNL1        0.0111
     15 C          20.6074   39.8564   28.7614 C.3     1  UNL1        0.0111
     16 O          27.2194   41.3974   29.4252 O.3     1  UNL1       -0.4684
     17 C          28.3727   41.5155   28.5898 C.3     1  UNL1        0.2526
     18 O          24.7906   42.4254   28.6400 O.3     1  UNL1       -0.4684
     19 C          24.8062   43.1181   27.3903 C.3     1  UNL1        0.2526
     20 C          25.6997   36.8554   28.5001 C.3     1  UNL1        0.0722
     21 C          25.6029   36.2951   29.8957 C.ar    1  UNL1        0.0635
     22 C          26.1823   35.0525   30.1960 C.ar    1  UNL1        0.0171
     23 C          26.8615   34.2957   29.2276 C.ar    1  UNL1        0.0412
     24 C          27.4060   33.0933   29.5732 C.ar    1  UNL1        0.1724
     25 C          27.2970   32.6024   30.8836 C.ar    1  UNL1        0.1724
     26 C          26.6522   33.3212   31.8495 C.ar    1  UNL1        0.0401
     27 C          26.0773   34.5572   31.5225 C.ar    1  UNL1        0.0059
     28 C          25.3855   35.3343   32.4699 C.ar    1  UNL1        0.0208
     29 C          24.8543   36.5247   32.0761 C.ar    1  UNL1        0.0985
     30 N          24.9719   36.9664   30.8313 N.ar    1  UNL1       -0.2478
     31 O          27.8503   31.4019   31.1982 O.3     1  UNL1       -0.4684
     32 C          26.9705   30.3932   31.6990 C.3     1  UNL1        0.2526
     33 O          28.0634   32.3608   28.6356 O.3     1  UNL1       -0.4684
     34 C          27.2737   31.7778   27.5970 C.3     1  UNL1        0.2526
@<TRIPOS>BOND
     1    12    13    1
     2    13    14    1
     3    13    15    1
     4    13    10    1
     5    10    11    2
     6    10     9    1
     7     9     7    1
     8     7     8    2
     9     7     1    1
    10     1     6   ar
    11     1     2   ar
    12     2     3   ar
    13     3     4   ar
    14     3    18    1
    15     4     5   ar
    16     4    16    1
    17     5     6   ar
    18     6    20    1
    19    20    21    1
    20    21    30   ar
    21    21    22   ar
    22    22    27   ar
    23    22    23   ar
    24    23    24   ar
    25    24    25   ar
    26    24    33    1
    27    25    26   ar
    28    25    31    1
    29    26    27   ar
    30    27    28   ar
    31    28    29   ar
    32    29    30   ar
    33    31    32    1
    34    33    34    1
    35    16    17    1
    36    18    19    1
@<TRIPOS>MOLECULE
ZINC10495423
 32 35 0 0 0
SMALL
GASTEIGER

@<TRIPOS>ATOM
      1 S          21.5384   40.4506   28.5749 S.3     1  UNL1       -0.0638
      2 C          20.9222   38.8040   28.4585 C.ar    1  UNL1        0.2151
      3 N          20.9964   38.0134   27.4094 N.ar    1  UNL1       -0.1011
      4 N          20.4486   36.8795   27.6609 N.ar    1  UNL1       -0.0218
      5 N          19.9913   36.8587   28.8659 N.ar    1  UNL1       -0.0382
      6 N          20.2868   38.1096   29.4356 N.ar    1  UNL1       -0.1862
      7 C          19.9864   38.5471   30.7347 C.ar    1  UNL1        0.0868
      8 C          18.6635   38.6807   31.1338 C.ar    1  UNL1        0.0224
      9 C          18.3684   39.1066   32.4136 C.ar    1  UNL1        0.0387
     10 C          19.3937   39.4111   33.2973 C.ar    1  UNL1        0.1469
     11 C          20.7159   39.2828   32.8971 C.ar    1  UNL1        0.0387
     12 C          21.0120   38.8520   31.6193 C.ar    1  UNL1        0.0224
     13 O          19.1027   39.8358   34.5554 O.3     1  UNL1       -0.4045
     14 C          19.6590   41.0876   34.9625 C.3     1  UNL1        0.5753
     15 F          18.9032   41.6132   36.0160 F       1  UNL1       -0.1328
     16 F          20.9787   40.8960   35.3856 F       1  UNL1       -0.1328
     17 F          19.6397   41.9791   33.8846 F       1  UNL1       -0.1328
     18 C          23.1488   40.2408   27.7758 C.3     1  UNL1        0.1528
     19 C          24.9939   38.0981   29.9949 C.ar    1  UNL1        0.2062
     20 N          23.9108   38.3245   29.2171 N.ar    1  UNL1       -0.1899
     21 C          24.0842   39.5206   28.7123 C.ar    1  UNL1        0.2480
     22 O          25.2492   39.9802   29.1796 O.2     1  UNL1       -0.3361
     23 N          25.7575   39.1569   29.9110 N.ar    1  UNL1       -0.0559
     24 C          25.9862   35.8178   30.2245 C.ar    1  UNL1        0.1415
     25 C          26.2419   34.6814   30.9761 C.ar    1  UNL1        0.0370
     26 C          25.7835   34.5939   32.2763 C.ar    1  UNL1        0.0031
     27 C          25.0672   35.6378   32.8361 C.ar    1  UNL1        0.0003
     28 C          24.8055   36.7748   32.0997 C.ar    1  UNL1        0.0062
     29 C          25.2676   36.8759   30.7891 C.ar    1  UNL1        0.0730
     30 O          26.4371   35.9054   28.9466 O.3     1  UNL1       -0.4754
     31 C          26.9840   34.1854   27.3394 C.3     1  UNL1        0.0512
     32 C          27.4580   34.9856   28.5544 C.3     1  UNL1        0.2055
@<TRIPOS>BOND
     1    31    32    1
     2    32    30    1
     3    30    24    1
     4    24    29   ar
     5    24    25   ar
     6    25    26   ar
     7    26    27   ar
     8    27    28   ar
     9    28    29   ar
    10    29    19    1
    11    19    23   ar
    12    19    20   ar
    13    20    21   ar
    14    21    22   ar
    15    21    18    1
    16    22    23   ar
    17    18     1    1
    18     1     2    1
    19     2     6   ar
    20     2     3   ar
    21     3     4   ar
    22     4     5   ar
    23     5     6   ar
    24     6     7    1
    25     7    12   ar
    26     7     8   ar
    27     8     9   ar
    28     9    10   ar
    29    10    11   ar
    30    10    13    1
    31    11    12   ar
    32    13    14    1
    33    14    15    1
    34    14    16    1
    35    14    17    1
@<TRIPOS>MOLECULE
ZINC28445933
 34 36 0 0 0
SMALL
GASTEIGER

@<TRIPOS>ATOM
      1 O          24.3967   37.5396   28.4095 O.3     1  UNL1       -0.4428
      2 C          23.6136   37.5542   29.4996 C.2     1  UNL1        0.3178
      3 O          23.7255   36.6890   30.3355 O.2     1  UNL1       -0.2501
      4 C          22.5948   38.6498   29.6808 C.3     1  UNL1        0.1194
      5 C          21.2765   38.2338   29.0250 C.3     1  UNL1        0.0997
      6 C          18.2329   38.7143   30.8755 C.ar    1  UNL1        0.2033
      7 N          18.8679   38.5064   29.7000 N.ar    1  UNL1       -0.1907
      8 C          20.1430   38.4510   29.9941 C.ar    1  UNL1        0.2371
      9 O          20.2497   38.6174   31.3161 O.2     1  UNL1       -0.3370
     10 N          19.1506   38.7724   31.8052 N.ar    1  UNL1       -0.0560
     11 C          12.5496   39.2459   31.6448 C.3     1  UNL1        0.0310
     12 C          14.0366   39.1072   31.4434 C.ar    1  UNL1       -0.0218
     13 C          14.5303   38.6891   30.2209 C.ar    1  UNL1       -0.0042
     14 C          15.8913   38.5599   30.0311 C.ar    1  UNL1        0.0028
     15 C          16.7683   38.8519   31.0735 C.ar    1  UNL1        0.0391
     16 C          16.2654   39.2680   32.3044 C.ar    1  UNL1        0.0028
     17 C          14.9028   39.3981   32.4820 C.ar    1  UNL1       -0.0042
     18 C          25.3302   38.6408   28.2536 C.3     1  UNL1        0.2446
     19 C          26.6016   38.3487   29.0533 C.3     1  UNL1        0.0575
     20 C          25.6790   38.8012   26.7964 C.2     1  UNL1        0.2697
     21 O          26.1147   37.8585   26.1698 O.2     1  UNL1       -0.2706
     22 N          25.5121   39.9936   26.1908 N.am    1  UNL1       -0.2546
     23 C          25.1022   41.1052   26.9354 C.ar    1  UNL1        0.0533
     24 C          26.0029   42.1236   27.2183 C.ar    1  UNL1        0.0106
     25 C          25.5937   43.2219   27.9492 C.ar    1  UNL1       -0.0209
     26 C          24.2919   43.3028   28.4084 C.ar    1  UNL1       -0.0084
     27 C          23.3942   42.2876   28.1332 C.ar    1  UNL1       -0.0209
     28 C          23.7955   41.1894   27.3980 C.ar    1  UNL1        0.0106
     29 C          21.9764   42.3798   28.6356 C.3     1  UNL1        0.0311
     30 C          26.5687   44.3306   28.2514 C.3     1  UNL1        0.0311
     31 C          25.7598   40.1260   24.7530 C.3     1  UNL1        0.1145
     32 C          24.4524   40.4780   24.0406 C.3     1  UNL1        0.1272
     33 C          24.5981   41.7753   23.3603 C.1     1  UNL1        0.0750
     34 N          24.7105   42.7764   22.8353 N.1     1  UNL1       -0.1958
@<TRIPOS>BOND
     1    11    12    1
     2    12    17   ar
     3    12    13   ar
     4    13    14   ar
     5    14    15   ar
     6    15    16   ar
     7    15     6    1
     8    16    17   ar
     9     6    10   ar
    10     6     7   ar
    11     7     8   ar
    12     8     9   ar
    13     8     5    1
    14     9    10   ar
    15     5     4    1
    16     4     2    1
    17     2     3    2
    18     2     1    1
    19     1    18    1
    20    18    19    1
    21    18    20    1
    22    20    21    2
    23    20    22   am
    24    22    31    1
    25    22    23    1
    26    31    32    1
    27    32    33    1
    28    33    34    3
    29    23    28   ar
    30    23    24   ar
    31    24    25   ar
    32    25    26   ar
    33    25    30    1
    34    26    27   ar
    35    27    28   ar
    36    27    29    1
@<TRIPOS>MOLECULE
ZINC29496606
 34 36 0 0 0
SMALL
GASTEIGER

@<TRIPOS>ATOM
      1 C          21.2812   38.0906   26.8557 C.3     1  UNL1        0.1143
      2 C          20.7186   37.3406   28.0355 C.2     1  UNL1        0.3177
      3 O          20.9484   36.1617   28.1674 O.2     1  UNL1       -0.2501
      4 O          19.9621   37.9821   28.9399 O.3     1  UNL1       -0.4428
      5 C          20.6509   38.5844   30.0673 C.3     1  UNL1        0.2440
      6 C          21.1318   39.9848   29.6823 C.3     1  UNL1        0.0575
      7 N          19.8902   39.6348   32.1736 N.am    1  UNL1       -0.2929
      8 C          19.7077   38.6814   31.2387 C.2     1  UNL1        0.2634
      9 O          18.7844   37.9016   31.3400 O.2     1  UNL1       -0.2712
     10 H          20.6397   40.2678   32.0913 H       1  UNL1        0.1504
     11 C          18.9733   39.7291   33.3123 C.3     1  UNL1        0.1363
     12 C          17.5364   39.5232   32.8285 C.3     1  UNL1        0.0353
     13 C          20.1820   41.0705   35.0393 C.3     1  UNL1        0.0027
     14 C          19.1013   41.1107   33.9571 C.3     1  UNL1        0.0301
     15 C          17.7638   41.5055   34.5865 C.3     1  UNL1        0.0027
     16 C          19.3111   38.6927   34.3016 C.1     1  UNL1        0.0896
     17 N          19.5719   37.8930   35.0650 N.1     1  UNL1       -0.1943
     18 C          22.6374   37.4949   26.4723 C.3     1  UNL1        0.0402
     19 C          23.7342   38.2422   27.1861 C.2     1  UNL1        0.0052
     20 C          24.0872   39.4808   26.7742 C.2     1  UNL1        0.0352
     21 C          24.4173   37.6276   28.3248 C.ar    1  UNL1        0.1068
     22 N          24.0237   37.5464   29.5826 N.ar    1  UNL1       -0.2387
     23 C          24.7587   36.9480   30.5311 C.ar    1  UNL1        0.0878
     24 C          24.4532   36.7940   31.9054 C.ar    1  UNL1        0.0196
     25 C          25.3130   36.1554   32.7429 C.ar    1  UNL1        0.0016
     26 C          26.5167   35.6318   32.2919 C.ar    1  UNL1        0.0006
     27 C          26.8539   35.7603   30.9568 C.ar    1  UNL1        0.0080
     28 C          25.9929   36.4029   30.1020 C.ar    1  UNL1        0.0485
     29 S          25.9947   36.7875   28.3676 S.2     1  UNL1       -0.0668
     30 C          25.0104   40.2825   27.5760 C.ar    1  UNL1        0.1453
     31 C          24.6601   41.2079   28.5197 C.ar    1  UNL1        0.0407
     32 C          25.8576   41.7312   29.0363 C.ar    1  UNL1        0.0438
     33 C          26.8713   41.1119   28.3950 C.ar    1  UNL1        0.1796
     34 O          26.3569   40.2349   27.5187 O.2     1  UNL1       -0.4504
@<TRIPOS>BOND
     1    13    14    1
     2    14    15    1
     3    14    11    1
     4    11    12    1
     5    11    16    1
     6    11     7    1
     7    16    17    3
     8     7     8   am
     9     8     9    2
    10     8     5    1
    11     5     6    1
    12     5     4    1
    13     4     2    1
    14     2     3    2
    15     2     1    1
    16     1    18    1
    17    18    19    1
    18    19    20    2
    19    19    21    1
    20    20    30    1
    21    30    34   ar
    22    30    31   ar
    23    31    32   ar
    24    32    33   ar
    25    33    34   ar
    26    21    29   ar
    27    21    22   ar
    28    22    23   ar
    29    23    28   ar
    30    23    24   ar
    31    24    25   ar
    32    25    26   ar
    33    26    27   ar
    34    27    28   ar
    35    28    29   ar
    36     7    10    1
@<TRIPOS>MOLECULE
ZINC06146146
 33 35 0 0 0
SMALL
GASTEIGER

@<TRIPOS>ATOM
      1 N          26.5875   34.4846   30.5652 N.2     1  UNL1       -0.1936
      2 C          26.7308   35.6386   29.9470 C.2     1  UNL1        0.2228
      3 O          27.9450   36.0133   29.4893 O.2     1  UNL1       -0.4919
      4 H          28.6854   35.4522   29.6116 H       1  UNL1        0.2937
      5 C          28.5234   33.8483   31.8142 C.ar    1  UNL1        0.1410
      6 C          27.6518   33.6781   30.7408 C.ar    1  UNL1        0.1603
      7 N          27.9184   32.6629   29.8840 N.ar    1  UNL1       -0.2974
      8 C          28.9966   31.8772   30.0865 C.ar    1  UNL1        0.1288
      9 S          29.5388   30.5519   29.1482 S.2     1  UNL1       -0.0247
     10 S          29.7000   32.5369   31.5279 S.2     1  UNL1       -0.0532
     11 C          28.4887   34.8049   32.8480 C.2     1  UNL1        0.3503
     12 O          28.5484   35.9919   32.5816 O.2     1  UNL1       -0.2442
     13 O          28.3892   34.4056   34.1346 O.3     1  UNL1       -0.4450
     14 C          27.1988   34.1298   36.2196 C.3     1  UNL1        0.0513
     15 C          27.0882   34.4372   34.7249 C.3     1  UNL1        0.2089
     16 C          27.0407   32.4222   28.7359 C.3     1  UNL1        0.1349
     17 C          27.6545   33.0259   27.4991 C.2     1  UNL1       -0.0017
     18 C          26.9766   33.8920   26.7874 C.2     1  UNL1       -0.0029
     19 C          25.5674   36.5202   29.7550 C.ar    1  UNL1        0.0529
     20 C          24.7126   36.7975   30.8277 C.ar    1  UNL1        0.0028
     21 C          23.6330   37.6229   30.6460 C.ar    1  UNL1       -0.0237
     22 C          23.3804   38.1764   29.3937 C.ar    1  UNL1       -0.1123
     23 C          24.2256   37.8988   28.3227 C.ar    1  UNL1       -0.0237
     24 C          25.3103   37.0785   28.4978 C.ar    1  UNL1        0.0028
     25 N          22.2812   39.0094   29.2122 N.pl3   1  UNL1       -0.5354
     26 S          20.7661   38.3592   29.0584 S.O2    1  UNL1       -0.0520
     27 O          20.1315   39.0554   27.9946 O.2     1  UNL1       -0.1837
     28 O          20.9283   36.9474   29.0552 O.2     1  UNL1       -0.1837
     29 C          19.8756   38.7604   30.5249 C.ar    1  UNL1        0.1187
     30 C          20.3451   39.2247   31.7086 C.ar    1  UNL1        0.0241
     31 C          19.4513   39.4737   32.7331 C.ar    1  UNL1        0.0088
     32 C          18.1316   39.2460   32.5239 C.ar    1  UNL1        0.0367
     33 S          18.1198   38.6680   30.8348 S.2     1  UNL1       -0.0697
@<TRIPOS>UNITY_ATOM_ATTR
25 1
charge -1
@<TRIPOS>BOND
     1    14    15    1
     2    15    13    1
     3    13    11    1
     4    11    12    2
     5    11     5    1
     6     5    10   ar
     7     5     6   ar
     8     6     7   ar
     9     6     1    1
    10     7     8   ar
    11     7    16    1
    12     8     9    2
    13     8    10   ar
    14    16    17    1
    15    17    18    2
    16     1     2    2
    17     2    19    1
    18     2     3    1
    19    19    24   ar
    20    19    20   ar
    21    20    21   ar
    22    21    22   ar
    23    22    23   ar
    24    22    25    1
    25    23    24   ar
    26    25    26    1
    27    26    27    2
    28    26    28    2
    29    26    29    1
    30    29    33   ar
    31    29    30   ar
    32    30    31   ar
    33    31    32   ar
    34    32    33   ar
    35     3     4    1
@<TRIPOS>MOLECULE
ZINC09692577
 36 39 0 0 0
SMALL
GASTEIGER

@<TRIPOS>ATOM
      1 C          21.3177   40.0511   28.8990 C.3     1  UNL1        0.1559
      2 N          22.7531   38.2870   27.9264 N.am    1  UNL1       -0.2743
      3 C          21.5936   38.9725   27.8833 C.2     1  UNL1        0.2421
      4 O          20.7722   38.7215   27.0270 O.2     1  UNL1       -0.2734
      5 C          23.6952   38.5096   29.0260 C.3     1  UNL1        0.0938
      6 C          23.7300   37.2730   29.9262 C.3     1  UNL1        0.0215
      7 C          26.1536   37.8244   29.6716 C.3     1  UNL1        0.0001
      8 C          25.1503   36.7053   29.9583 C.3     1  UNL1        0.0018
      9 C          23.0714   37.3191   26.8738 C.3     1  UNL1        0.1202
     10 C          24.3013   37.7721   26.1299 C.ar    1  UNL1       -0.0023
     11 C          25.4291   36.9731   26.1075 C.ar    1  UNL1       -0.0026
     12 C          26.5555   37.3865   25.4211 C.ar    1  UNL1       -0.0003
     13 C          26.5575   38.6034   24.7652 C.ar    1  UNL1       -0.0000
     14 C          25.4316   39.4049   24.7923 C.ar    1  UNL1       -0.0003
     15 C          24.3033   38.9892   25.4744 C.ar    1  UNL1       -0.0026
     16 N          20.0359   39.7858   29.5570 N.3     1  UNL1       -0.1716
     17 H          19.3886   39.4824   28.8294 H       1  UNL1        0.1493
     18 S          19.9461   38.6662   30.7739 S.O2    1  UNL1        0.0621
     19 O          21.0304   38.9336   31.6526 O.2     1  UNL1       -0.1529
     20 O          19.7647   37.4022   30.1502 O.2     1  UNL1       -0.1529
     21 C          18.4711   38.9975   31.6789 C.ar    1  UNL1        0.1416
     22 C          18.5426   39.3511   32.9844 C.ar    1  UNL1        0.0216
     23 C          17.3958   39.6205   33.7313 C.ar    1  UNL1        0.0030
     24 C          16.1592   39.5406   33.1847 C.ar    1  UNL1        0.0214
     25 C          16.0078   39.1757   31.8215 C.ar    1  UNL1        0.1102
     26 C          17.2081   38.8932   31.0399 C.ar    1  UNL1        0.1273
     27 N          16.9199   38.5650   29.7821 N.ar    1  UNL1       -0.1888
     28 S          15.3585   38.6208   29.6616 S.2     1  UNL1        0.1165
     29 N          14.8972   39.0357   31.1006 N.ar    1  UNL1       -0.1901
     30 C          21.2593   41.4095   28.1973 C.3     1  UNL1        0.0531
     31 C          22.5427   42.1592   28.4464 C.ar    1  UNL1       -0.0203
     32 C          23.7524   41.5989   28.0808 C.ar    1  UNL1       -0.0042
     33 C          24.9293   42.2887   28.3048 C.ar    1  UNL1       -0.0003
     34 C          24.8972   43.5340   28.9040 C.ar    1  UNL1       -0.0000
     35 C          23.6879   44.0921   29.2742 C.ar    1  UNL1       -0.0003
     36 C          22.5106   43.4046   29.0454 C.ar    1  UNL1       -0.0042
@<TRIPOS>BOND
     1     7     8    1
     2     8     6    1
     3     6     5    1
     4     5     2    1
     5     2     9    1
     6     2     3   am
     7     9    10    1
     8    10    15   ar
     9    10    11   ar
    10    11    12   ar
    11    12    13   ar
    12    13    14   ar
    13    14    15   ar
    14     3     4    2
    15     3     1    1
    16     1    30    1
    17     1    16    1
    18    30    31    1
    19    31    36   ar
    20    31    32   ar
    21    32    33   ar
    22    33    34   ar
    23    34    35   ar
    24    35    36   ar
    25    16    18    1
    26    18    19    2
    27    18    20    2
    28    18    21    1
    29    21    26   ar
    30    21    22   ar
    31    22    23   ar
    32    23    24   ar
    33    24    25   ar
    34    25    29   ar
    35    25    26   ar
    36    26    27   ar
    37    27    28   ar
    38    28    29   ar
    39    16    17    1
@<TRIPOS>MOLECULE
ZINC03295127
 37 40 0 0 0
SMALL
GASTEIGER

@<TRIPOS>ATOM
      1 C          26.7134   37.4118   29.1780 C.2     1  UNL1        0.3418
      2 O          27.3111   38.3665   29.6328 O.2     1  UNL1       -0.2449
      3 C          25.2487   37.4752   28.9965 C.ar    1  UNL1        0.0757
      4 C          24.3963   37.1302   30.0472 C.ar    1  UNL1        0.0078
      5 C          23.0296   37.1958   29.8722 C.ar    1  UNL1        0.0201
      6 C          22.5029   37.5927   28.6557 C.ar    1  UNL1        0.1220
      7 C          23.3419   37.9311   27.6088 C.ar    1  UNL1        0.0201
      8 C          24.7105   37.8746   27.7716 C.ar    1  UNL1        0.0078
      9 S          20.7559   37.6676   28.4391 S.O2    1  UNL1        0.0606
     10 O          20.4645   38.9636   27.9342 O.2     1  UNL1       -0.1530
     11 O          20.3804   36.4808   27.7537 O.2     1  UNL1       -0.1530
     12 N          20.0716   37.5813   29.9446 N.3     1  UNL1       -0.1717
     13 H          20.7415   37.1009   30.5453 H       1  UNL1        0.1493
     14 C          19.6811   38.8084   30.6431 C.3     1  UNL1        0.1555
     15 C          18.1814   38.8496   30.7859 C.ar    1  UNL1        0.1406
     16 C          17.5062   39.1968   31.8963 C.ar    1  UNL1        0.0377
     17 C          16.1302   39.0963   31.5871 C.ar    1  UNL1        0.0435
     18 C          16.0469   38.6936   30.3064 C.ar    1  UNL1        0.1792
     19 O          17.2924   38.5513   29.8243 O.2     1  UNL1       -0.4532
     20 O          27.3863   36.2951   28.8392 O.3     1  UNL1       -0.4365
     21 C          27.1790   35.1227   29.6704 C.3     1  UNL1        0.2521
     22 C          27.0710   30.3965   26.3470 C.3     1  UNL1        0.0310
     23 C          27.1013   31.6290   27.2137 C.ar    1  UNL1       -0.0219
     24 C          27.1063   31.5058   28.5906 C.ar    1  UNL1       -0.0045
     25 C          27.1337   32.6363   29.3855 C.ar    1  UNL1       -0.0007
     26 C          27.1561   33.8901   28.8037 C.ar    1  UNL1        0.0248
     27 C          27.1516   34.0132   27.4269 C.ar    1  UNL1       -0.0007
     28 C          27.1237   32.8827   26.6318 C.ar    1  UNL1       -0.0045
     29 C          28.3001   35.0120   30.6714 C.2     1  UNL1        0.2172
     30 O          29.4522   35.0981   30.3034 O.2     1  UNL1       -0.2872
     31 C          27.9965   34.7993   32.0957 C.ar    1  UNL1        0.0386
     32 C          27.5692   35.8677   32.8905 C.ar    1  UNL1        0.0027
     33 C          27.2808   35.6591   34.2225 C.ar    1  UNL1       -0.0042
     34 C          27.4245   34.3989   34.7763 C.ar    1  UNL1       -0.0218
     35 C          27.8528   33.3376   33.9979 C.ar    1  UNL1       -0.0042
     36 C          28.1393   33.5289   32.6627 C.ar    1  UNL1        0.0027
     37 C          27.1137   34.1810   36.2347 C.3     1  UNL1        0.0310
@<TRIPOS>BOND
     1    22    23    1
     2    23    28   ar
     3    23    24   ar
     4    24    25   ar
     5    25    26   ar
     6    26    27   ar
     7    26    21    1
     8    27    28   ar
     9    21    29    1
    10    21    20    1
    11    29    30    2
    12    29    31    1
    13    31    36   ar
    14    31    32   ar
    15    32    33   ar
    16    33    34   ar
    17    34    35   ar
    18    34    37    1
    19    35    36   ar
    20    20     1    1
    21     1     2    2
    22     1     3    1
    23     3     8   ar
    24     3     4   ar
    25     4     5   ar
    26     5     6   ar
    27     6     7   ar
    28     6     9    1
    29     7     8   ar
    30     9    10    2
    31     9    11    2
    32     9    12    1
    33    12    14    1
    34    14    15    1
    35    15    19   ar
    36    15    16   ar
    37    16    17   ar
    38    17    18   ar
    39    18    19   ar
    40    12    13    1
@<TRIPOS>MOLECULE
ZINC03815652
 38 43 0 0 0
SMALL
GASTEIGER

@<TRIPOS>ATOM
      1 C          24.8454   39.1360   29.3511 C.3     1  UNL1        0.0497
      2 C          25.5739   37.8225   29.4747 C.ar    1  UNL1        0.0422
      3 C          25.2379   36.9227   30.4698 C.ar    1  UNL1       -0.0861
      4 C          25.9432   35.7009   30.5461 C.ar    1  UNL1        0.0164
      5 C          26.9265   35.4405   29.6641 C.ar    1  UNL1        0.1246
      6 O          27.2500   36.3204   28.7057 O.2     1  UNL1       -0.4258
      7 C          26.6066   37.4945   28.5877 C.ar    1  UNL1        0.3405
      8 O          26.9226   38.2760   27.7057 O.2     1  UNL1       -0.2449
      9 O          24.2494   37.2052   31.3507 O.co2   1  UNL1       -0.8729
     10 C          27.6771   34.1369   29.7561 C.3     1  UNL1        0.0575
     11 C          26.7544   33.0559   30.3226 C.3     1  UNL1        0.0075
     12 C          27.5134   32.2323   31.3648 C.3     1  UNL1        0.0004
     13 C          28.2962   31.0145   30.8696 C.3     1  UNL1        0.0000
     14 C          27.0006   30.8214   31.6604 C.3     1  UNL1        0.0000
     15 C          28.1525   33.7226   28.3621 C.3     1  UNL1        0.0075
     16 C          26.9976   33.0652   27.6039 C.3     1  UNL1        0.0004
     17 C          27.2808   31.7378   26.8977 C.3     1  UNL1        0.0000
     18 C          27.0918   33.0156   26.0777 C.3     1  UNL1        0.0000
     19 C          21.1474   39.1353   28.5685 C.ar    1  UNL1        0.0645
     20 C          21.1305   38.5140   27.3260 C.ar    1  UNL1        0.0158
     21 C          22.3135   38.0985   26.7475 C.ar    1  UNL1        0.0010
     22 C          23.5136   38.2952   27.4060 C.ar    1  UNL1       -0.0039
     23 C          23.5346   38.9183   28.6400 C.ar    1  UNL1       -0.0170
     24 C          22.3550   39.3363   29.2246 C.ar    1  UNL1        0.0119
     25 N          19.9526   39.5564   29.1569 N.pl3   1  UNL1       -0.2150
     26 H          19.6074   40.4607   28.9773 H       1  UNL1        0.1737
     27 S          19.1168   38.5345   30.1565 S.O2    1  UNL1        0.0736
     28 O          17.7530   38.6081   29.7642 O.2     1  UNL1       -0.1499
     29 O          19.8376   37.3101   30.1804 O.2     1  UNL1       -0.1499
     30 C          19.3557   40.2577   34.3355 C.ar    1  UNL1        0.0001
     31 C          18.1245   40.0591   33.7391 C.ar    1  UNL1        0.0014
     32 C          18.0516   39.5331   32.4628 C.ar    1  UNL1        0.0202
     33 C          19.2098   39.2054   31.7831 C.ar    1  UNL1        0.1252
     34 C          20.4408   39.3986   32.3817 C.ar    1  UNL1        0.0202
     35 C          20.5139   39.9299   33.6558 C.ar    1  UNL1        0.0014
     36 C          25.7016   40.1208   28.5522 C.3     1  UNL1        0.0083
     37 C          26.2497   41.3423   29.2926 C.3     1  UNL1        0.0007
     38 C          25.1145   41.5070   28.2790 C.3     1  UNL1        0.0007
@<TRIPOS>UNITY_ATOM_ATTR
9 1
charge -1
@<TRIPOS>BOND
     1    30    35   ar
     2    30    31   ar
     3    31    32   ar
     4    32    33   ar
     5    33    34   ar
     6    33    27    1
     7    34    35   ar
     8    27    28    2
     9    27    29    2
    10    27    25    1
    11    25    19    1
    12    19    24   ar
    13    19    20   ar
    14    20    21   ar
    15    21    22   ar
    16    22    23   ar
    17    23    24   ar
    18    23     1    1
    19     1     2    1
    20     1    36    1
    21     2     7   ar
    22     2     3   ar
    23     3     4   ar
    24     3     9    1
    25     4     5   ar
    26     5     6   ar
    27     5    10    1
    28     6     7   ar
    29     7     8    2
    30    10    11    1
    31    10    15    1
    32    11    12    1
    33    12    14    1
    34    12    13    1
    35    13    14    1
    36    15    16    1
    37    16    18    1
    38    16    17    1
    39    17    18    1
    40    36    38    1
    41    36    37    1
    42    37    38    1
    43    25    26    1
@<TRIPOS>MOLECULE
ZINC28105887
 36 40 0 0 0
SMALL
GASTEIGER

@<TRIPOS>ATOM
      1 C          23.0348   38.3133   28.2560 C.ar    1  UNL1        0.0757
      2 C          21.8707   38.6297   27.5511 C.ar    1  UNL1        0.0065
      3 C          20.6777   38.7754   28.2225 C.ar    1  UNL1        0.0032
      4 C          20.6332   38.6188   29.6101 C.ar    1  UNL1        0.0341
      5 C          21.7984   38.3076   30.3156 C.ar    1  UNL1        0.0032
      6 C          22.9903   38.1562   29.6437 C.ar    1  UNL1        0.0065
      7 C          19.3540   38.7817   30.3314 C.ar    1  UNL1        0.1441
      8 N          18.1746   38.6109   29.6603 N.ar    1  UNL1       -0.1906
      9 C          16.9913   38.7511   30.2858 C.ar    1  UNL1        0.2824
     10 O          15.9477   38.5956   29.6754 O.2     1  UNL1       -0.2651
     11 C          16.9748   39.0851   31.6786 C.ar    1  UNL1        0.0802
     12 C          15.8340   39.2872   32.5621 C.ar    1  UNL1        0.0131
     13 C          16.0626   39.6005   33.8616 C.ar    1  UNL1        0.0370
     14 S          17.8412   39.6416   33.9699 S.2     1  UNL1       -0.0693
     15 C          18.2336   39.2415   32.2861 C.ar    1  UNL1        0.0928
     16 N          19.3649   39.0839   31.6118 N.ar    1  UNL1       -0.3333
     17 H          20.2258   39.1948   32.0765 H       1  UNL1        0.1678
     18 C          14.4494   39.1532   32.0500 C.ar    1  UNL1        0.0007
     19 C          13.6234   40.2732   31.9647 C.ar    1  UNL1        0.0000
     20 C          12.3373   40.1434   31.4817 C.ar    1  UNL1        0.0000
     21 C          11.8632   38.9030   31.0935 C.ar    1  UNL1        0.0000
     22 C          12.6763   37.7872   31.1814 C.ar    1  UNL1        0.0000
     23 C          13.9661   37.9058   31.6573 C.ar    1  UNL1        0.0000
     24 C          24.3138   38.1509   27.5349 C.2     1  UNL1        0.3416
     25 O          24.4315   37.2804   26.6959 O.2     1  UNL1       -0.2449
     26 O          25.3494   38.9681   27.8077 O.3     1  UNL1       -0.4369
     27 C          25.0946   40.3965   27.7518 C.3     1  UNL1        0.2752
     28 N          26.5118   42.4640   28.2227 N.ar    1  UNL1       -0.2138
     29 C          26.2812   41.1406   28.3078 C.ar    1  UNL1        0.2053
     30 N          27.2895   40.6247   28.9676 N.ar    1  UNL1       -0.1088
     31 N          28.0972   41.5813   29.2718 N.ar    1  UNL1       -0.0229
     32 N          27.6331   42.6932   28.8183 N.ar    1  UNL1       -0.0431
     33 C          25.6540   43.4565   27.5706 C.3     1  UNL1        0.1307
     34 C          25.6697   44.7546   28.3803 C.3     1  UNL1        0.0265
     35 C          23.4010   43.9442   29.0423 C.3     1  UNL1        0.0001
     36 C          24.6674   44.6498   29.5315 C.3     1  UNL1        0.0021
@<TRIPOS>BOND
     1    35    36    1
     2    36    34    1
     3    34    33    1
     4    33    28    1
     5    28    32   ar
     6    28    29   ar
     7    29    30   ar
     8    29    27    1
     9    30    31   ar
    10    31    32   ar
    11    27    26    1
    12    26    24    1
    13    24    25    2
    14    24     1    1
    15     1     6   ar
    16     1     2   ar
    17     2     3   ar
    18     3     4   ar
    19     4     5   ar
    20     4     7    1
    21     5     6   ar
    22     7    16   ar
    23     7     8   ar
    24     8     9   ar
    25     9    10    2
    26     9    11   ar
    27    11    15   ar
    28    11    12   ar
    29    12    13   ar
    30    12    18    1
    31    13    14   ar
    32    14    15   ar
    33    15    16   ar
    34    18    23   ar
    35    18    19   ar
    36    19    20   ar
    37    20    21   ar
    38    21    22   ar
    39    22    23   ar
    40    16    17    1
@<TRIPOS>MOLECULE
ZINC23871121
 36 39 0 0 0
SMALL
GASTEIGER

@<TRIPOS>ATOM
      1 C          23.8067   39.8269   26.7051 C.ar    1  UNL1        0.0958
      2 C          24.4572   40.8238   25.8758 C.ar    1  UNL1        0.0145
      3 C          24.6197   42.0573   26.4183 C.ar    1  UNL1        0.0369
      4 S          23.8974   41.8913   28.0373 S.2     1  UNL1       -0.0715
      5 C          23.4131   40.2306   27.9740 C.ar    1  UNL1        0.0871
      6 C          24.9218   40.5106   24.5034 C.ar    1  UNL1        0.0004
      7 C          26.2105   40.0203   24.2957 C.ar    1  UNL1       -0.0003
      8 C          26.6359   39.7264   23.0165 C.ar    1  UNL1       -0.0046
      9 C          25.7900   39.9264   21.9401 C.ar    1  UNL1       -0.0258
     10 C          24.5123   40.4175   22.1395 C.ar    1  UNL1       -0.0258
     11 C          24.0740   40.7104   23.4150 C.ar    1  UNL1       -0.0045
     12 C          23.5971   40.6326   20.9619 C.3     1  UNL1        0.0307
     13 C          26.2625   39.6085   20.5449 C.3     1  UNL1        0.0307
     14 N          22.7786   39.4838   28.9538 N.am    1  UNL1       -0.2757
     15 C          21.4340   39.4963   29.0457 C.2     1  UNL1        0.2711
     16 O          20.7794   40.1611   28.2708 O.2     1  UNL1       -0.2707
     17 H          23.3101   38.9442   29.5828 H       1  UNL1        0.1554
     18 C          20.7440   38.6840   30.1111 C.3     1  UNL1        0.2931
     19 O          19.9802   39.5671   30.9742 O.3     1  UNL1       -0.4331
     20 C          19.1583   38.9865   31.8695 C.2     1  UNL1        0.3799
     21 O          19.6165   38.4707   32.8689 O.2     1  UNL1       -0.2413
     22 C          17.6967   38.9774   31.6354 C.ar    1  UNL1        0.2609
     23 N          16.7805   39.4990   32.4543 N.ar    1  UNL1       -0.1834
     24 C          15.5706   39.3189   31.9454 C.ar    1  UNL1        0.2544
     25 N          14.3490   39.6554   32.3812 N.ar    1  UNL1       -0.2084
     26 C          13.2790   39.3599   31.6809 C.ar    1  UNL1        0.1033
     27 C          13.3965   38.6830   30.4590 C.ar    1  UNL1        0.0356
     28 C          14.6284   38.3370   30.0080 C.ar    1  UNL1        0.0655
     29 N          15.7201   38.6574   30.7563 N.ar    1  UNL1       -0.1989
     30 N          17.0952   38.4520   30.5842 N.ar    1  UNL1       -0.1365
     31 C          14.7864   37.6092   28.6979 C.3     1  UNL1        0.0523
     32 C          23.5771   38.4632   26.2280 C.2     1  UNL1        0.3429
     33 O          22.8506   38.2674   25.2721 O.2     1  UNL1       -0.2448
     34 O          24.1710   37.4228   26.8481 O.3     1  UNL1       -0.4454
     35 C          26.0466   36.4455   25.6411 C.3     1  UNL1        0.0513
     36 C          25.6206   37.3611   26.7904 C.3     1  UNL1        0.2089
@<TRIPOS>BOND
     1    35    36    1
     2    36    34    1
     3    34    32    1
     4    32    33    2
     5    32     1    1
     6     1     5   ar
     7     1     2   ar
     8     2     3   ar
     9     2     6    1
    10     3     4   ar
    11     4     5   ar
    12     5    14    1
    13    14    15   am
    14    15    16    2
    15    15    18    1
    16    18    19    1
    17    19    20    1
    18    20    21    2
    19    20    22    1
    20    22    30   ar
    21    22    23   ar
    22    23    24   ar
    23    24    29   ar
    24    24    25   ar
    25    25    26   ar
    26    26    27   ar
    27    27    28   ar
    28    28    29   ar
    29    28    31    1
    30    29    30   ar
    31     6    11   ar
    32     6     7   ar
    33     7     8   ar
    34     8     9   ar
    35     9    10   ar
    36     9    13    1
    37    10    11   ar
    38    10    12    1
    39    14    17    1
@<TRIPOS>MOLECULE
ZINC11244140
 36 38 0 0 0
SMALL
GASTEIGER

@<TRIPOS>ATOM
      1 C          25.0251   40.9055   23.8623 C.2     1  UNL1        0.3515
      2 O          25.6050   41.9643   23.7169 O.2     1  UNL1       -0.2441
      3 C          24.7095   39.0426   25.4505 C.2     1  UNL1        0.0180
      4 C          24.7414   40.4034   25.2121 C.2     1  UNL1        0.1439
      5 C          24.6981   37.6798   30.3143 C.3     1  UNL1        0.0500
      6 C          24.3009   37.9488   28.8858 C.ar    1  UNL1        0.0372
      7 C          25.1024   38.4655   27.9398 C.ar    1  UNL1        0.0139
      8 C          24.2945   38.5542   26.7152 C.ar    1  UNL1        0.0136
      9 C          23.0438   38.0614   27.0510 C.ar    1  UNL1        0.0372
     10 N          23.0702   37.7035   28.3478 N.ar    1  UNL1       -0.3315
     11 C          21.8605   37.9458   26.1251 C.3     1  UNL1        0.0500
     12 C          21.9358   37.1364   29.0811 C.3     1  UNL1        0.1348
     13 C          20.9868   38.2607   29.5012 C.3     1  UNL1        0.1378
     14 C          21.2531   38.6798   30.9695 C.3     1  UNL1        0.0341
     15 C          19.8901   39.2837   31.3867 C.3     1  UNL1        0.0346
     16 C          18.8874   38.6823   30.3828 C.3     1  UNL1        0.1422
     17 O          19.6219   37.7908   29.5273 O.3     1  UNL1       -0.3543
     18 C          24.4975   41.3237   26.2817 C.1     1  UNL1        0.1070
     19 N          24.3041   42.0538   27.1302 N.1     1  UNL1       -0.1906
     20 O          24.6427   40.1924   22.7835 O.3     1  UNL1       -0.4348
     21 C          25.6587   39.9119   21.7848 C.3     1  UNL1        0.2931
     22 C          25.0530   40.0162   20.4088 C.2     1  UNL1        0.2711
     23 O          23.8845   40.3150   20.2819 O.2     1  UNL1       -0.2707
     24 N          25.8097   39.7774   19.3196 N.am    1  UNL1       -0.2757
     25 H          26.7583   39.5349   19.4227 H       1  UNL1        0.1554
     26 C          25.2526   39.8733   18.0540 C.ar    1  UNL1        0.0864
     27 C          24.6959   38.8634   17.2761 C.ar    1  UNL1        0.0915
     28 C          24.1839   39.2489   15.9823 C.ar    1  UNL1       -0.0119
     29 C          24.2888   40.5458   15.6417 C.ar    1  UNL1        0.0051
     30 S          25.0740   41.2806   17.0611 S.2     1  UNL1       -0.0767
     31 C          23.8430   41.2168   14.3682 C.3     1  UNL1        0.0379
     32 C          23.5591   38.2409   15.0527 C.3     1  UNL1        0.0315
     33 C          24.6326   37.4779   17.7460 C.2     1  UNL1        0.3427
     34 O          23.7404   37.1302   18.4961 O.2     1  UNL1       -0.2448
     35 O          25.5637   36.5873   17.3470 O.3     1  UNL1       -0.4413
     36 C          26.5256   36.1486   18.3423 C.3     1  UNL1        0.2560
@<TRIPOS>BOND
     1     5     6    1
     2     6    10   ar
     3     6     7   ar
     4     7     8   ar
     5     8     9   ar
     6     8     3    1
     7     9    10   ar
     8     9    11    1
     9    10    12    1
    10    12    13    1
    11    13    17    1
    12    13    14    1
    13    14    15    1
    14    15    16    1
    15    16    17    1
    16     3     4    2
    17     4    18    1
    18     4     1    1
    19    18    19    3
    20     1     2    2
    21     1    20    1
    22    20    21    1
    23    21    22    1
    24    22    23    2
    25    22    24   am
    26    24    26    1
    27    26    30   ar
    28    26    27   ar
    29    27    28   ar
    30    27    33    1
    31    28    29   ar
    32    28    32    1
    33    29    30   ar
    34    29    31    1
    35    33    34    2
    36    33    35    1
    37    35    36    1
    38    24    25    1
@<TRIPOS>MOLECULE
ZINC00933158
 35 37 0 0 0
SMALL
GASTEIGER

@<TRIPOS>ATOM
      1 S          13.9873   37.3675   29.7885 S.O2    1  UNL1        0.0636
      2 O          12.9958   37.2383   30.7981 O.2     1  UNL1       -0.1528
      3 O          14.9198   36.3349   29.4998 O.2     1  UNL1       -0.1528
      4 C          11.7952   38.2484   25.9272 C.ar    1  UNL1        0.1220
      5 C          13.1575   38.0149   25.9107 C.ar    1  UNL1        0.0213
      6 C          13.8277   37.7504   27.0904 C.ar    1  UNL1        0.0213
      7 C          13.1340   37.7100   28.2854 C.ar    1  UNL1        0.1223
      8 C          11.7708   37.9389   28.3014 C.ar    1  UNL1        0.0213
      9 C          11.1012   38.2077   27.1221 C.ar    1  UNL1        0.0213
     10 S          10.9418   38.5910   24.4242 S.O2    1  UNL1        0.0602
     11 O           9.6875   39.1511   24.7880 O.2     1  UNL1       -0.1530
     12 O          11.0508   37.4245   23.6202 O.2     1  UNL1       -0.1530
     13 N          11.7843   39.7842   23.6438 N.3     1  UNL1       -0.1808
     14 H          12.3555   40.2504   24.3485 H       1  UNL1        0.1487
     15 C          11.0650   40.8349   22.9195 C.3     1  UNL1        0.0755
     16 C          11.1022   40.5373   21.4191 C.3     1  UNL1        0.0188
     17 C          11.8913   42.9462   21.8699 C.3     1  UNL1        0.0015
     18 C          11.7301   42.1864   23.1880 C.3     1  UNL1        0.0174
     19 N          14.8742   38.7143   30.1656 N.3     1  UNL1       -0.1507
     20 C          16.2769   38.8067   29.7531 C.3     1  UNL1        0.1005
     21 C          17.1357   37.9284   30.6652 C.3     1  UNL1        0.0408
     22 C          18.5043   38.5421   30.8101 C.2     1  UNL1       -0.0470
     23 C          18.8667   38.9473   31.9850 C.2     1  UNL1       -0.0346
     24 C          20.1917   39.5857   32.2827 C.3     1  UNL1        0.0254
     25 C          21.1787   39.3053   31.1474 C.3     1  UNL1        0.0050
     26 C          20.4968   39.6459   29.8164 C.3     1  UNL1        0.0047
     27 C          19.3649   38.6401   29.5846 C.3     1  UNL1        0.0217
     28 C          14.2561   39.8130   30.9120 C.3     1  UNL1        0.1221
     29 C          15.1234   40.1691   32.0919 C.ar    1  UNL1       -0.0043
     30 C          15.7539   41.3985   32.1395 C.ar    1  UNL1       -0.0006
     31 C          16.5456   41.7281   33.2233 C.ar    1  UNL1        0.0294
     32 C          16.7157   40.8223   34.2566 C.ar    1  UNL1        0.1401
     33 C          16.0879   39.5893   34.2052 C.ar    1  UNL1        0.0294
     34 C          15.2924   39.2640   33.1230 C.ar    1  UNL1       -0.0006
     35 F          17.4932   41.1415   35.3143 F       1  UNL1       -0.2042
@<TRIPOS>BOND
     1    17    18    1
     2    18    15    1
     3    15    16    1
     4    15    13    1
     5    13    10    1
     6    10    11    2
     7    10    12    2
     8    10     4    1
     9     4     9   ar
    10     4     5   ar
    11     5     6   ar
    12     6     7   ar
    13     7     8   ar
    14     7     1    1
    15     8     9   ar
    16     1     2    2
    17     1     3    2
    18     1    19    1
    19    19    20    1
    20    19    28    1
    21    20    21    1
    22    21    22    1
    23    22    27    1
    24    22    23    2
    25    23    24    1
    26    24    25    1
    27    25    26    1
    28    26    27    1
    29    28    29    1
    30    29    34   ar
    31    29    30   ar
    32    30    31   ar
    33    31    32   ar
    34    32    33   ar
    35    32    35    1
    36    33    34   ar
    37    13    14    1
@<TRIPOS>MOLECULE
ZINC26877746
 34 36 0 0 0
SMALL
GASTEIGER

@<TRIPOS>ATOM
      1 O          12.6817   38.0029   27.0466 O.3     1  UNL1       -0.4397
      2 C          12.2493   38.2524   25.7947 C.2     1  UNL1        0.3435
      3 O          13.0422   38.5681   24.9294 O.2     1  UNL1       -0.2448
      4 C          10.0861   39.2709   25.0591 C.ar    1  UNL1        0.1132
      5 C          10.8161   38.1425   25.4752 C.ar    1  UNL1        0.0991
      6 C          10.1546   36.9130   25.5796 C.ar    1  UNL1        0.0101
      7 C           8.8076   36.8628   25.2676 C.ar    1  UNL1        0.0209
      8 C           8.1572   38.0160   24.8652 C.ar    1  UNL1        0.0994
      9 N           8.7980   39.1641   24.7680 N.ar    1  UNL1       -0.2374
     10 S          10.8902   40.8323   24.9180 S.3     1  UNL1       -0.0882
     11 C           9.7482   41.6736   23.7936 C.3     1  UNL1        0.1126
     12 C          11.7876   43.0581   19.3405 C.3     1  UNL1        0.0754
     13 C          11.2014   42.2946   20.5000 C.ar    1  UNL1        0.1545
     14 C          10.7809   42.8091   21.6803 C.ar    1  UNL1        0.0545
     15 C          10.3275   41.6815   22.4025 C.ar    1  UNL1        0.1116
     16 N          10.5146   40.6507   21.6298 N.ar    1  UNL1       -0.0809
     17 O          10.9938   40.9721   20.5671 O.2     1  UNL1       -0.3580
     18 C          13.7224   37.0017   27.1972 C.3     1  UNL1        0.2447
     19 C          13.0868   35.6116   27.2645 C.3     1  UNL1        0.0575
     20 C          14.4922   37.2640   28.4659 C.2     1  UNL1        0.2668
     21 O          14.9191   36.3356   29.1191 O.2     1  UNL1       -0.2709
     22 N          14.7061   38.5303   28.8748 N.am    1  UNL1       -0.2759
     23 H          14.3596   39.2840   28.3446 H       1  UNL1        0.1554
     24 C          15.4141   38.7714   30.0418 C.ar    1  UNL1        0.0864
     25 C          14.9182   39.0390   31.3135 C.ar    1  UNL1        0.0915
     26 C          15.8924   39.2535   32.3576 C.ar    1  UNL1       -0.0119
     27 C          17.1898   39.1764   32.0122 C.ar    1  UNL1        0.0051
     28 S          17.1299   38.8051   30.2716 S.2     1  UNL1       -0.0767
     29 C          18.4027   39.3549   32.8887 C.3     1  UNL1        0.0379
     30 C          15.4729   39.5506   33.7742 C.3     1  UNL1        0.0315
     31 C          13.4797   39.1007   31.5803 C.2     1  UNL1        0.3427
     32 O          12.9762   40.1396   31.9635 O.2     1  UNL1       -0.2448
     33 O          12.7130   38.0056   31.4011 O.3     1  UNL1       -0.4413
     34 C          11.4569   38.1884   30.6959 C.3     1  UNL1        0.2560
@<TRIPOS>BOND
     1    12    13    1
     2    13    17   ar
     3    13    14   ar
     4    14    15   ar
     5    15    16   ar
     6    15    11    1
     7    16    17   ar
     8    11    10    1
     9    10     4    1
    10     4     9   ar
    11     4     5   ar
    12     5     6   ar
    13     5     2    1
    14     6     7   ar
    15     7     8   ar
    16     8     9   ar
    17     2     3    2
    18     2     1    1
    19     1    18    1
    20    18    19    1
    21    18    20    1
    22    20    21    2
    23    20    22   am
    24    22    24    1
    25    24    28   ar
    26    24    25   ar
    27    25    26   ar
    28    25    31    1
    29    26    27   ar
    30    26    30    1
    31    27    28   ar
    32    27    29    1
    33    31    32    2
    34    31    33    1
    35    33    34    1
    36    22    23    1
@<TRIPOS>MOLECULE
ZINC02192868
 37 40 0 0 0
SMALL
GASTEIGER

@<TRIPOS>ATOM
      1 C          20.3840   37.9938   29.2463 C.2     1  UNL1        0.0862
      2 O          20.7320   36.8275   29.2652 O.2     1  UNL1       -0.3128
      3 C          19.7825   38.5975   30.4367 C.ar    1  UNL1        0.0722
      4 C          20.4687   39.1683   31.5252 C.ar    1  UNL1        0.1248
      5 N          19.5934   39.6020   32.3924 N.ar    1  UNL1       -0.1621
      6 N          18.3004   39.3418   31.9244 N.ar    1  UNL1       -0.2081
      7 C          18.4049   38.7239   30.7096 C.ar    1  UNL1        0.1663
      8 N          17.3193   38.3644   30.0285 N.ar    1  UNL1       -0.2259
      9 C          16.1061   38.6006   30.5123 C.ar    1  UNL1        0.0904
     10 C          15.9610   39.2410   31.7644 C.ar    1  UNL1        0.0428
     11 C          17.0673   39.5977   32.4558 C.ar    1  UNL1        0.1572
     12 C          14.9147   38.1974   29.7469 C.ar    1  UNL1        0.0472
     13 C          14.8138   37.8426   28.4140 C.ar    1  UNL1        0.0085
     14 C          13.5648   37.5005   27.9491 C.ar    1  UNL1        0.0075
     15 C          12.5090   37.5378   28.8003 C.ar    1  UNL1        0.0355
     16 S          13.2237   38.0468   30.2954 S.2     1  UNL1       -0.0849
     17 C          16.9416   40.2834   33.7919 C.3     1  UNL1        0.4350
     18 F          18.1018   40.0608   34.5413 F       1  UNL1       -0.1644
     19 F          16.7694   41.6579   33.5963 F       1  UNL1       -0.1644
     20 F          15.8370   39.7681   34.4785 F       1  UNL1       -0.1644
     21 N          20.5526   38.7293   28.1297 N.am    1  UNL1       -0.6053
     22 C          22.8687   39.5867   27.7184 C.ar    1  UNL1        0.0555
     23 C          23.6523   40.7296   27.7539 C.ar    1  UNL1       -0.0047
     24 C          23.0577   41.8963   28.1540 C.ar    1  UNL1        0.0996
     25 S          21.3810   41.3890   28.4849 S.2     1  UNL1       -0.1056
     26 C          21.5240   39.7077   28.0884 C.ar    1  UNL1       -0.0851
     27 C          25.1081   40.6893   27.3663 C.3     1  UNL1        0.0319
     28 C          23.4278   38.2961   27.3017 C.2     1  UNL1        0.3396
     29 O          23.6204   38.0692   26.1226 O.2     1  UNL1       -0.2450
     30 O          23.7281   37.3614   28.2260 O.3     1  UNL1       -0.4455
     31 C          23.8696   37.5903   30.6464 C.3     1  UNL1        0.0513
     32 C          24.6005   37.7666   29.3138 C.3     1  UNL1        0.2089
     33 C          23.6503   43.2272   28.2784 C.2     1  UNL1        0.3469
     34 O          23.3805   44.0915   27.4659 O.2     1  UNL1       -0.2443
     35 O          24.4964   43.4968   29.2943 O.3     1  UNL1       -0.4451
     36 C          25.2717   44.6928   29.1929 C.3     1  UNL1        0.2089
     37 C          26.5401   44.4113   28.3849 C.3     1  UNL1        0.0513
@<TRIPOS>UNITY_ATOM_ATTR
21 1
charge -1
@<TRIPOS>BOND
     1    31    32    1
     2    32    30    1
     3    30    28    1
     4    28    29    2
     5    28    22    1
     6    22    26   ar
     7    22    23   ar
     8    23    24   ar
     9    23    27    1
    10    24    25   ar
    11    24    33    1
    12    25    26   ar
    13    26    21    1
    14    21     1    1
    15     1     2    2
    16     1     3    1
    17     3     7   ar
    18     3     4   ar
    19     4     5   ar
    20     5     6   ar
    21     6    11   ar
    22     6     7   ar
    23     7     8   ar
    24     8     9   ar
    25     9    10   ar
    26     9    12    1
    27    10    11   ar
    28    11    17    1
    29    17    18    1
    30    17    19    1
    31    17    20    1
    32    12    16   ar
    33    12    13   ar
    34    13    14   ar
    35    14    15   ar
    36    15    16   ar
    37    33    34    2
    38    33    35    1
    39    35    36    1
    40    36    37    1
@<TRIPOS>MOLECULE
ZINC13959432
 38 41 0 0 0
SMALL
GASTEIGER

@<TRIPOS>ATOM
      1 C          13.5146   37.1607   27.4347 C.3     1  UNL1        0.1543
      2 C          13.8140   37.8494   28.7412 C.2     1  UNL1        0.2381
      3 O          12.9553   37.9327   29.5936 O.2     1  UNL1       -0.2738
      4 N          15.0361   38.3728   28.9626 N.am    1  UNL1       -0.2781
      5 H          15.7332   38.3052   28.2707 H       1  UNL1        0.1553
      6 C          15.3114   39.0064   30.1643 C.ar    1  UNL1        0.0864
      7 C          16.5067   39.0351   30.8708 C.ar    1  UNL1        0.0915
      8 C          16.5311   39.7805   32.1182 C.ar    1  UNL1       -0.0122
      9 C          15.3659   40.3730   32.4573 C.ar    1  UNL1        0.0047
     10 S          14.2499   39.9610   31.1461 S.2     1  UNL1       -0.0767
     11 C          15.0939   41.1993   33.6763 C.3     1  UNL1        0.0327
     12 C          16.2318   40.9677   34.6813 C.3     1  UNL1        0.0055
     13 C          17.5705   41.0962   33.9487 C.3     1  UNL1        0.0050
     14 C          17.7635   39.9077   33.0053 C.3     1  UNL1        0.0268
     15 C          17.6975   38.3401   30.3774 C.2     1  UNL1        0.3425
     16 O          17.9731   37.2324   30.7976 O.2     1  UNL1       -0.2448
     17 O          18.4887   38.9283   29.4569 O.3     1  UNL1       -0.4492
     18 C          19.9125   38.6561   29.5408 C.3     1  UNL1        0.1694
     19 C          20.5857   39.0508   28.2248 C.3     1  UNL1        0.0473
     20 C          20.5201   39.4665   30.6875 C.3     1  UNL1        0.0473
     21 S          11.7500   36.7668   27.3507 S.3     1  UNL1       -0.0191
     22 N          10.7525   37.8003   24.9718 N.am    1  UNL1       -0.1921
     23 C          10.4239   38.9880   24.4181 C.2     1  UNL1        0.3211
     24 O           9.9847   39.1836   23.2992 O.2     1  UNL1       -0.2629
     25 C          10.7093   39.9962   25.4523 C.2     1  UNL1        0.2795
     26 C          10.5338   41.3576   25.3540 C.2     1  UNL1        0.0769
     27 N          11.1903   39.3025   26.5295 N.2     1  UNL1       -0.1808
     28 C          11.2073   38.0274   26.2458 C.2     1  UNL1        0.3174
     29 H          11.4779   39.7010   27.3826 H       1  UNL1        0.4555
     30 C          10.1507   41.9567   24.0716 C.ar    1  UNL1        0.0401
     31 C           8.8636   42.4234   23.7122 C.ar    1  UNL1        0.1214
     32 N           8.9255   42.8793   22.4917 N.ar    1  UNL1       -0.1679
     33 N          10.2347   42.7392   22.0185 N.ar    1  UNL1       -0.2528
     34 C          10.9799   42.1726   22.9836 C.ar    1  UNL1        0.0577
     35 C          12.4460   41.8345   22.8973 C.3     1  UNL1        0.0518
     36 C          10.7121   43.1376   20.6920 C.3     1  UNL1        0.1533
     37 C          10.8962   36.6445   22.8213 C.3     1  UNL1        0.0239
     38 C          10.6411   36.4919   24.3221 C.3     1  UNL1        0.1049
@<TRIPOS>UNITY_ATOM_ATTR
27 1
charge 1
@<TRIPOS>BOND
     1    37    38    1
     2    38    22    1
     3    22    28    1
     4    22    23   am
     5    23    24    2
     6    23    25    1
     7    25    26    2
     8    25    27    1
     9    26    30    1
    10    30    34   ar
    11    30    31   ar
    12    31    32   ar
    13    32    33   ar
    14    33    34   ar
    15    33    36    1
    16    34    35    1
    17    27    28    2
    18    28    21    1
    19    21     1    1
    20     1     2    1
    21     2     3    2
    22     2     4   am
    23     4     6    1
    24     6    10   ar
    25     6     7   ar
    26     7     8   ar
    27     7    15    1
    28     8    14    1
    29     8     9   ar
    30     9    10   ar
    31     9    11    1
    32    11    12    1
    33    12    13    1
    34    13    14    1
    35    15    16    2
    36    15    17    1
    37    17    18    1
    38    18    19    1
    39    18    20    1
    40    27    29    1
    41     4     5    1
@<TRIPOS>MOLECULE
ZINC06146384
 41 45 0 0 0
SMALL
GASTEIGER

@<TRIPOS>ATOM
      1 C          27.1627   34.2451   30.9499 C.ar    1  UNL1        0.0816
      2 C          26.5649   35.5098   30.8691 C.ar    1  UNL1        0.0238
      3 C          26.3193   36.0698   29.6210 C.ar    1  UNL1        0.0559
      4 C          26.6972   35.2828   28.4452 C.ar    1  UNL1        0.0222
      5 C          26.4839   35.7590   27.1477 C.ar    1  UNL1        0.0016
      6 C          26.8512   34.9936   26.0803 C.ar    1  UNL1        0.0001
      7 C          27.4354   33.7431   26.2666 C.ar    1  UNL1        0.0015
      8 C          27.6566   33.2501   27.5161 C.ar    1  UNL1        0.0191
      9 C          27.2911   34.0115   28.6411 C.ar    1  UNL1        0.0814
     10 N          27.4954   33.5537   29.8785 N.ar    1  UNL1       -0.2454
     11 C          27.9716   31.7636   33.6593 C.ar    1  UNL1        0.1755
     12 C          27.7271   32.3064   32.4102 C.ar    1  UNL1        0.0418
     13 C          27.4244   33.6619   32.2871 C.ar    1  UNL1        0.0239
     14 C          27.3684   34.4682   33.4233 C.ar    1  UNL1        0.0418
     15 C          27.6134   33.9222   34.6709 C.ar    1  UNL1        0.1755
     16 C          27.9102   32.5684   34.7925 C.ar    1  UNL1        0.2061
     17 C          27.1706   29.5257   33.7366 C.3     1  UNL1        0.2526
     18 O          28.2666   30.4415   33.7799 O.3     1  UNL1       -0.4683
     19 O          28.1457   32.0322   36.0200 O.3     1  UNL1       -0.4654
     20 C          29.4943   32.0589   36.4918 C.3     1  UNL1        0.2528
     21 O          27.5589   34.7083   35.7793 O.3     1  UNL1       -0.4683
     22 C          28.3228   35.9157   35.7566 C.3     1  UNL1        0.2526
     23 C          25.6971   37.4003   29.4861 C.2     1  UNL1        0.2215
     24 N          24.7540   37.5949   28.5994 N.2     1  UNL1       -0.2137
     25 O          26.1013   38.4200   30.2792 O.2     1  UNL1       -0.4919
     26 H          26.7765   38.2806   30.9139 H       1  UNL1        0.2937
     27 C          24.2726   38.8551   28.3791 C.ar    1  UNL1        0.0624
     28 C          25.0485   39.7937   27.6961 C.ar    1  UNL1        0.0174
     29 C          24.5568   41.0639   27.4770 C.ar    1  UNL1        0.0014
     30 C          23.2965   41.4133   27.9310 C.ar    1  UNL1       -0.0018
     31 C          22.5174   40.4941   28.6083 C.ar    1  UNL1       -0.0224
     32 C          22.9933   39.2114   28.8332 C.ar    1  UNL1       -0.0941
     33 N          22.2059   38.2804   29.5120 N.pl3   1  UNL1       -0.5342
     34 S          20.6131   38.0876   29.1022 S.O2    1  UNL1       -0.0520
     35 O          20.3526   39.0003   28.0446 O.2     1  UNL1       -0.1837
     36 O          20.3931   36.6897   28.9736 O.2     1  UNL1       -0.1837
     37 C          19.6525   38.6242   30.4784 C.ar    1  UNL1        0.1187
     38 C          18.3164   38.5180   30.6801 C.ar    1  UNL1        0.0241
     39 C          17.7734   39.0155   31.8499 C.ar    1  UNL1        0.0088
     40 C          18.5931   39.5948   32.7608 C.ar    1  UNL1        0.0367
     41 S          20.1877   39.4416   31.9727 S.2     1  UNL1       -0.0697
@<TRIPOS>UNITY_ATOM_ATTR
33 1
charge -1
@<TRIPOS>BOND
     1    17    18    1
     2    18    11    1
     3    11    16   ar
     4    11    12   ar
     5    12    13   ar
     6    13    14   ar
     7    13     1    1
     8    14    15   ar
     9    15    16   ar
    10    15    21    1
    11    16    19    1
    12    19    20    1
    13    21    22    1
    14     1    10   ar
    15     1     2   ar
    16     2     3   ar
    17     3     4   ar
    18     3    23    1
    19     4     9   ar
    20     4     5   ar
    21     5     6   ar
    22     6     7   ar
    23     7     8   ar
    24     8     9   ar
    25     9    10   ar
    26    23    24    2
    27    23    25    1
    28    24    27    1
    29    27    32   ar
    30    27    28   ar
    31    28    29   ar
    32    29    30   ar
    33    30    31   ar
    34    31    32   ar
    35    32    33    1
    36    33    34    1
    37    34    35    2
    38    34    36    2
    39    34    37    1
    40    37    41   ar
    41    37    38   ar
    42    38    39   ar
    43    39    40   ar
    44    40    41   ar
    45    25    26    1
@<TRIPOS>MOLECULE
ZINC21292732
 33 36 0 0 0
SMALL
GASTEIGER

@<TRIPOS>ATOM
      1 C          22.5985   38.3293   28.1911 C.ar    1  UNL1        0.1253
      2 C          23.5158   37.6044   28.9321 C.ar    1  UNL1        0.0211
      3 C          24.7859   38.1044   29.1532 C.ar    1  UNL1        0.0128
      4 C          25.1439   39.3377   28.6440 C.ar    1  UNL1        0.0589
      5 C          24.2207   40.0767   27.8998 C.ar    1  UNL1        0.0275
      6 C          22.9419   39.5617   27.6766 C.ar    1  UNL1        0.0223
      7 CL         26.7367   39.9674   28.9274 Cl      1  UNL1       -0.0822
      8 S          20.9852   37.6789   27.9107 S.O2    1  UNL1        0.0736
      9 O          20.8506   36.5469   28.7593 O.2     1  UNL1       -0.1499
     10 O          20.8188   37.5988   26.5018 O.2     1  UNL1       -0.1499
     11 N          19.9012   38.8077   28.4520 N.pl3   1  UNL1       -0.2150
     12 H          19.4458   39.4000   27.8109 H       1  UNL1        0.1737
     13 C          19.1019   39.1404   32.5248 C.ar    1  UNL1       -0.0221
     14 C          18.0990   38.7551   31.6542 C.ar    1  UNL1       -0.0030
     15 C          18.3607   38.6440   30.3028 C.ar    1  UNL1        0.0155
     16 C          19.6330   38.9196   29.8182 C.ar    1  UNL1        0.0648
     17 C          20.6395   39.3013   30.6962 C.ar    1  UNL1        0.0155
     18 C          20.3697   39.4155   32.0458 C.ar    1  UNL1       -0.0030
     19 C          18.8126   39.2611   33.9989 C.3     1  UNL1        0.0264
     20 C          20.1223   39.1719   34.7847 C.3     1  UNL1        0.0047
     21 C          19.2359   41.3937   35.5059 C.3     1  UNL1        0.0000
     22 C          20.5030   40.5609   35.3009 C.3     1  UNL1        0.0003
     23 C          24.5956   41.3960   27.3513 C.2     1  UNL1        0.0835
     24 O          24.1186   42.4090   27.8250 O.2     1  UNL1       -0.3129
     25 N          25.4663   41.4768   26.3258 N.am    1  UNL1       -0.5887
     26 C          24.9969   41.5529   25.0200 C.ar    1  UNL1        0.0175
     27 N          24.9206   42.5920   24.2000 N.ar    1  UNL1       -0.1661
     28 N          24.4614   42.4842   23.0303 N.ar    1  UNL1       -0.1471
     29 C          24.0292   41.3355   22.5489 C.ar    1  UNL1        0.1090
     30 S          24.3291   40.2740   23.9595 S.2     1  UNL1       -0.0746
     31 C          23.4533   41.0079   21.1955 C.3     1  UNL1        0.0483
     32 C          23.9503   39.7361   20.5053 C.3     1  UNL1        0.0069
     33 C          24.3866   41.1089   19.9873 C.3     1  UNL1        0.0069
@<TRIPOS>UNITY_ATOM_ATTR
25 1
charge -1
@<TRIPOS>BOND
     1    21    22    1
     2    22    20    1
     3    20    19    1
     4    19    13    1
     5    13    18   ar
     6    13    14   ar
     7    14    15   ar
     8    15    16   ar
     9    16    17   ar
    10    16    11    1
    11    17    18   ar
    12    11     8    1
    13     8     9    2
    14     8    10    2
    15     8     1    1
    16     1     6   ar
    17     1     2   ar
    18     2     3   ar
    19     3     4   ar
    20     4     5   ar
    21     4     7    1
    22     5     6   ar
    23     5    23    1
    24    23    24    2
    25    23    25    1
    26    25    26    1
    27    26    30   ar
    28    26    27   ar
    29    27    28   ar
    30    28    29   ar
    31    29    30   ar
    32    29    31    1
    33    31    33    1
    34    31    32    1
    35    32    33    1
    36    11    12    1
@<TRIPOS>MOLECULE
ZINC03413962
 37 40 0 0 0
SMALL
GASTEIGER

@<TRIPOS>ATOM
      1 C          23.3345   38.3772   27.1875 C.2     1  UNL1        0.3398
      2 O          23.8073   37.6556   26.3315 O.2     1  UNL1       -0.2449
      3 C          25.3061   39.0340   28.5671 C.ar    1  UNL1       -0.1060
      4 C          26.0877   40.0144   29.1662 C.ar    1  UNL1       -0.0236
      5 C          25.7487   41.3450   29.0343 C.ar    1  UNL1       -0.0019
      6 C          24.6294   41.7156   28.3050 C.ar    1  UNL1        0.0001
      7 C          23.8449   40.7590   27.6998 C.ar    1  UNL1        0.0046
      8 C          24.1716   39.4058   27.8283 C.ar    1  UNL1        0.0537
      9 N          25.6449   37.6941   28.6988 N.pl3   1  UNL1       -0.5357
     10 S          25.7653   37.0146   30.2041 S.O2    1  UNL1       -0.0581
     11 O          26.8284   37.6840   30.8681 O.2     1  UNL1       -0.1842
     12 O          24.4476   36.9648   30.7338 O.2     1  UNL1       -0.1842
     13 C          27.5113   33.1125   27.1966 C.3     1  UNL1        0.0311
     14 C          27.0818   33.5937   28.5585 C.ar    1  UNL1       -0.0206
     15 C          27.0925   32.7247   29.6338 C.ar    1  UNL1       -0.0045
     16 C          26.6982   33.1658   30.8829 C.ar    1  UNL1       -0.0034
     17 C          26.2929   34.4760   31.0570 C.ar    1  UNL1       -0.0062
     18 C          26.2822   35.3449   29.9822 C.ar    1  UNL1        0.0850
     19 C          26.6717   34.9022   28.7316 C.ar    1  UNL1        0.0123
     20 C          25.8625   34.9569   32.4189 C.3     1  UNL1        0.0323
     21 O          22.0444   38.2361   27.5504 O.3     1  UNL1       -0.4369
     22 C          21.7713   38.0838   28.9683 C.3     1  UNL1        0.2770
     23 C          20.8573   39.1913   29.4257 C.2     1  UNL1        0.2181
     24 O          20.4784   40.0306   28.6354 O.2     1  UNL1       -0.2873
     25 C          20.4261   39.2546   30.8239 C.ar    1  UNL1        0.0512
     26 C          21.2147   39.7184   31.9733 C.ar    1  UNL1        0.0168
     27 C          20.4196   39.6002   33.0499 C.ar    1  UNL1        0.0377
     28 N          19.2093   39.1034   32.6608 N.ar    1  UNL1       -0.3271
     29 C          19.1919   38.8958   31.3322 C.ar    1  UNL1        0.0404
     30 C          18.0292   38.3617   30.5359 C.3     1  UNL1        0.0501
     31 C          20.8028   39.9600   34.4623 C.3     1  UNL1        0.0500
     32 C          18.0853   38.8394   33.5627 C.3     1  UNL1        0.1704
     33 C          16.9998   39.8569   33.3236 C.ar    1  UNL1        0.1458
     34 C          17.0558   41.1596   33.6542 C.ar    1  UNL1        0.0382
     35 C          15.8315   41.7383   33.2481 C.ar    1  UNL1        0.0435
     36 C          15.0972   40.7529   32.7011 C.ar    1  UNL1        0.1792
     37 O          15.8098   39.6157   32.7495 O.2     1  UNL1       -0.4527
@<TRIPOS>UNITY_ATOM_ATTR
9 1
charge -1
@<TRIPOS>BOND
     1    13    14    1
     2    14    19   ar
     3    14    15   ar
     4    15    16   ar
     5    16    17   ar
     6    17    18   ar
     7    17    20    1
     8    18    19   ar
     9    18    10    1
    10    10    11    2
    11    10    12    2
    12    10     9    1
    13     9     3    1
    14     3     8   ar
    15     3     4   ar
    16     4     5   ar
    17     5     6   ar
    18     6     7   ar
    19     7     8   ar
    20     8     1    1
    21     1     2    2
    22     1    21    1
    23    21    22    1
    24    22    23    1
    25    23    24    2
    26    23    25    1
    27    25    29   ar
    28    25    26   ar
    29    26    27   ar
    30    27    28   ar
    31    27    31    1
    32    28    29   ar
    33    28    32    1
    34    29    30    1
    35    32    33    1
    36    33    37   ar
    37    33    34   ar
    38    34    35   ar
    39    35    36   ar
    40    36    37   ar
@<TRIPOS>MOLECULE
ZINC03205319
 37 40 0 0 0
SMALL
GASTEIGER

@<TRIPOS>ATOM
      1 N          24.6149   38.7197   28.0998 N.ar    1  UNL1       -0.3014
      2 C          24.6220   40.0986   28.0827 C.ar    1  UNL1        0.1632
      3 C          25.8370   40.5104   27.3737 C.ar    1  UNL1        0.1276
      4 C          26.5133   39.2579   27.0003 C.ar    1  UNL1        0.1189
      5 C          25.7191   38.2243   27.4747 C.ar    1  UNL1        0.1274
      6 N          26.1023   41.7902   27.2018 N.ar    1  UNL1       -0.2400
      7 C          25.2551   42.7094   27.6789 C.ar    1  UNL1        0.0990
      8 C          25.5224   44.0806   27.5046 C.ar    1  UNL1        0.0206
      9 C          24.6543   45.0062   27.9941 C.ar    1  UNL1        0.0016
     10 C          23.4983   44.6172   28.6692 C.ar    1  UNL1        0.0016
     11 C          23.2066   43.3019   28.8568 C.ar    1  UNL1        0.0207
     12 C          24.0798   42.3136   28.3652 C.ar    1  UNL1        0.1005
     13 N          23.8006   41.0167   28.5459 N.ar    1  UNL1       -0.2251
     14 N          26.0042   36.8844   27.3290 N.am    1  UNL1       -0.2665
     15 C          26.7383   36.2462   28.2619 C.2     1  UNL1        0.2506
     16 O          27.2360   36.8728   29.1769 O.2     1  UNL1       -0.2698
     17 H          25.6717   36.3930   26.5434 H       1  UNL1        0.1565
     18 C          26.9380   34.7854   28.1726 C.ar    1  UNL1        0.0554
     19 C          26.9275   34.1511   26.9283 C.ar    1  UNL1        0.0055
     20 C          27.1149   32.7875   26.8512 C.ar    1  UNL1        0.0132
     21 C          27.3192   32.0473   28.0044 C.ar    1  UNL1        0.0801
     22 C          27.3251   32.6697   29.2417 C.ar    1  UNL1        0.1535
     23 C          27.1387   34.0331   29.3316 C.ar    1  UNL1        0.0295
     24 CL         27.5616   30.3316   27.8987 Cl      1  UNL1       -0.0805
     25 N          27.5379   31.8707   30.4694 N.pl3   1  UNL1        0.0585
     26 O          28.6522   31.4642   30.7459 O.2     1  UNL1       -0.1261
     27 O          26.5986   31.6198   31.2031 O.2     1  UNL1       -0.1261
     28 C          27.7486   39.1311   26.2872 C.1     1  UNL1        0.1048
     29 N          28.7287   39.0305   25.7215 N.1     1  UNL1       -0.1907
     30 C          23.5655   37.8999   28.7105 C.3     1  UNL1        0.0880
     31 C          23.6730   37.9861   30.2344 C.3     1  UNL1        0.0226
     32 C          24.1994   36.6589   30.7843 C.3     1  UNL1        0.0020
     33 C          22.1942   38.4128   28.2663 C.3     1  UNL1        0.0226
     34 C          21.0985   37.6659   29.0296 C.3     1  UNL1        0.0019
     35 C          20.0322   38.6601   29.4938 C.3     1  UNL1        0.0001
     36 C          18.8629   38.5988   31.7010 C.3     1  UNL1        0.0000
     37 C          20.1852   38.9077   30.9959 C.3     1  UNL1        0.0000
@<TRIPOS>BOND
     1    36    37    1
     2    37    35    1
     3    35    34    1
     4    34    33    1
     5    33    30    1
     6    30    31    1
     7    30     1    1
     8    31    32    1
     9     1     5   ar
    10     1     2   ar
    11     2    13   ar
    12     2     3   ar
    13     3     4   ar
    14     3     6   ar
    15     4     5   ar
    16     4    28    1
    17     5    14    1
    18    14    15   am
    19    15    16    2
    20    15    18    1
    21    18    23   ar
    22    18    19   ar
    23    19    20   ar
    24    20    21   ar
    25    21    22   ar
    26    21    24    1
    27    22    23   ar
    28    22    25    1
    29    25    26    2
    30    25    27    2
    31    28    29    3
    32     6     7   ar
    33     7    12   ar
    34     7     8   ar
    35     8     9   ar
    36     9    10   ar
    37    10    11   ar
    38    11    12   ar
    39    12    13   ar
    40    14    17    1
@<TRIPOS>MOLECULE
ZINC12241452
 39 42 0 0 0
SMALL
GASTEIGER

@<TRIPOS>ATOM
      1 C          26.8798   34.6722   30.9050 C.ar    1  UNL1        0.1487
      2 C          27.3185   34.6168   32.2236 C.ar    1  UNL1        0.1210
      3 C          28.1814   33.5012   32.3278 C.ar    1  UNL1        0.1337
      4 N          28.2624   32.9334   31.1572 N.ar    1  UNL1       -0.1602
      5 N          27.4645   33.6364   30.2479 N.ar    1  UNL1       -0.1978
      6 C          27.2983   33.3275   28.8975 C.ar    1  UNL1        0.1648
      7 C          27.2816   31.9843   28.5007 C.ar    1  UNL1        0.0346
      8 C          27.1148   31.6667   27.1855 C.ar    1  UNL1       -0.0174
      9 C          26.9737   32.7183   26.2579 C.ar    1  UNL1        0.0132
     10 C          26.8030   32.4637   24.8881 C.ar    1  UNL1       -0.0031
     11 C          26.6693   33.5055   24.0211 C.ar    1  UNL1       -0.0221
     12 C          26.6998   34.8219   24.4757 C.ar    1  UNL1       -0.0070
     13 C          26.8642   35.1047   25.7970 C.ar    1  UNL1       -0.0045
     14 C          27.0050   34.0561   26.7226 C.ar    1  UNL1        0.0786
     15 N          27.1665   34.3052   28.0265 N.ar    1  UNL1       -0.2268
     16 C          26.8939   36.5365   26.2660 C.3     1  UNL1        0.0326
     17 C          26.4867   33.2304   22.5507 C.3     1  UNL1        0.0310
     18 C          27.0868   30.2290   26.7346 C.3     1  UNL1        0.0312
     19 C          26.4591   36.8486   30.0770 C.2     1  UNL1        0.2508
     20 O          27.5931   37.1721   30.3732 O.2     1  UNL1       -0.2698
     21 N          26.0157   35.6085   30.3634 N.am    1  UNL1       -0.2651
     22 H          25.0772   35.3685   30.1873 H       1  UNL1        0.1566
     23 C          23.4335   38.3484   28.4312 C.ar    1  UNL1        0.1754
     24 C          24.2677   37.4404   29.0559 C.ar    1  UNL1        0.0448
     25 C          25.5666   37.8155   29.4095 C.ar    1  UNL1        0.0599
     26 C          26.0166   39.1095   29.1351 C.ar    1  UNL1        0.0448
     27 C          25.1799   40.0119   28.5055 C.ar    1  UNL1        0.1754
     28 C          23.8861   39.6357   28.1545 C.ar    1  UNL1        0.2059
     29 O          22.1692   37.9839   28.0867 O.3     1  UNL1       -0.4723
     30 C          20.4068   38.1405   29.7328 C.3     1  UNL1        0.0512
     31 C          21.4271   37.2296   29.0471 C.3     1  UNL1        0.2057
     32 O          23.0636   40.5265   27.5407 O.3     1  UNL1       -0.4695
     33 C          22.0633   41.1496   28.3489 C.3     1  UNL1        0.2058
     34 C          22.3939   42.6342   28.5152 C.3     1  UNL1        0.0512
     35 O          25.6190   41.2700   28.2335 O.3     1  UNL1       -0.4723
     36 C          25.9878   42.0837   29.3488 C.3     1  UNL1        0.2057
     37 C          25.9232   43.5587   28.9475 C.3     1  UNL1        0.0512
     38 C          26.9620   35.5182   33.2777 C.1     1  UNL1        0.1049
     39 N          26.6791   36.2332   34.1139 N.1     1  UNL1       -0.1907
@<TRIPOS>BOND
     1    30    31    1
     2    31    29    1
     3    29    23    1
     4    23    28   ar
     5    23    24   ar
     6    24    25   ar
     7    25    26   ar
     8    25    19    1
     9    26    27   ar
    10    27    28   ar
    11    27    35    1
    12    28    32    1
    13    32    33    1
    14    33    34    1
    15    35    36    1
    16    36    37    1
    17    19    20    2
    18    19    21   am
    19    21     1    1
    20     1     5   ar
    21     1     2   ar
    22     2     3   ar
    23     2    38    1
    24     3     4   ar
    25     4     5   ar
    26     5     6    1
    27     6    15   ar
    28     6     7   ar
    29     7     8   ar
    30     8     9   ar
    31     8    18    1
    32     9    14   ar
    33     9    10   ar
    34    10    11   ar
    35    11    12   ar
    36    11    17    1
    37    12    13   ar
    38    13    14   ar
    39    13    16    1
    40    14    15   ar
    41    38    39    3
    42    21    22    1
@<TRIPOS>MOLECULE
ZINC10882907
 36 39 0 0 0
SMALL
GASTEIGER

@<TRIPOS>ATOM
      1 N          20.8406   39.0316   30.6354 N.am    1  UNL1       -0.2606
      2 C          21.0238   38.0830   29.6956 C.2     1  UNL1        0.2509
      3 O          20.1142   37.3301   29.4066 O.2     1  UNL1       -0.2698
      4 H          21.5772   39.6414   30.8695 H       1  UNL1        0.1571
      5 C          22.3305   37.9584   29.0163 C.ar    1  UNL1        0.0538
      6 C          22.3977   37.9482   27.6221 C.ar    1  UNL1        0.0059
      7 C          23.6212   37.8374   26.9944 C.ar    1  UNL1        0.0201
      8 C          24.7788   37.7244   27.7437 C.ar    1  UNL1        0.1222
      9 C          24.7188   37.7281   29.1260 C.ar    1  UNL1        0.0201
     10 C          23.5024   37.8445   29.7664 C.ar    1  UNL1        0.0059
     11 S          26.3367   37.5758   26.9340 S.O2    1  UNL1        0.0639
     12 O          26.0731   37.6034   25.5380 O.2     1  UNL1       -0.1528
     13 O          27.2111   38.5030   27.5625 O.2     1  UNL1       -0.1528
     14 N          26.9238   36.0654   27.2752 N.3     1  UNL1       -0.1466
     15 C          27.7150   35.3441   26.2753 C.3     1  UNL1        0.1222
     16 C          26.8960   34.2142   25.7063 C.2     1  UNL1       -0.0071
     17 C          27.1787   32.9753   26.0245 C.2     1  UNL1       -0.0034
     18 C          26.6519   35.4506   28.5768 C.3     1  UNL1        0.1222
     19 C          27.9462   34.9863   29.1934 C.2     1  UNL1       -0.0071
     20 C          27.9966   33.8398   29.8250 C.2     1  UNL1       -0.0034
     21 C          17.3244   39.0654   31.5682 C.ar    1  UNL1        0.1241
     22 C          17.4754   39.5176   32.8524 C.ar    1  UNL1        0.0603
     23 S          19.2533   39.6839   32.9401 S.2     1  UNL1       -0.0507
     24 C          19.6132   39.1486   31.2734 C.ar    1  UNL1        0.1659
     25 N          18.4047   38.8949   30.8090 N.ar    1  UNL1       -0.2208
     26 C          12.0323   37.7069   28.9510 C.ar    1  UNL1        0.1389
     27 C          11.5355   38.2172   30.1469 C.ar    1  UNL1        0.0400
     28 C          12.3916   38.6812   31.1227 C.ar    1  UNL1        0.0406
     29 C          13.7646   38.6431   30.9193 C.ar    1  UNL1        0.1456
     30 C          14.2689   38.1285   29.7121 C.ar    1  UNL1        0.0407
     31 C          13.3951   37.6607   28.7292 C.ar    1  UNL1        0.0400
     32 C          15.7267   38.2247   29.8187 C.ar    1  UNL1        0.0422
     33 C          15.9793   38.7765   31.0305 C.ar    1  UNL1        0.1634
     34 O          14.8200   39.0168   31.6738 O.2     1  UNL1       -0.4520
     35 C          11.6779   36.2795   27.0823 C.3     1  UNL1        0.2525
     36 O          11.1741   37.2532   27.9987 O.3     1  UNL1       -0.4714
@<TRIPOS>BOND
     1    35    36    1
     2    36    26    1
     3    26    31   ar
     4    26    27   ar
     5    27    28   ar
     6    28    29   ar
     7    29    34   ar
     8    29    30   ar
     9    30    31   ar
    10    30    32   ar
    11    32    33   ar
    12    33    34   ar
    13    33    21    1
    14    21    25   ar
    15    21    22   ar
    16    22    23   ar
    17    23    24   ar
    18    24    25   ar
    19    24     1    1
    20     1     2   am
    21     2     3    2
    22     2     5    1
    23     5    10   ar
    24     5     6   ar
    25     6     7   ar
    26     7     8   ar
    27     8     9   ar
    28     8    11    1
    29     9    10   ar
    30    11    12    2
    31    11    13    2
    32    11    14    1
    33    14    15    1
    34    14    18    1
    35    15    16    1
    36    16    17    2
    37    18    19    1
    38    19    20    2
    39     1     4    1
@<TRIPOS>MOLECULE
ZINC27700560
 36 39 0 0 0
SMALL
GASTEIGER

@<TRIPOS>ATOM
      1 C          14.0344   38.3959   29.8770 C.3     1  UNL1        0.2447
      2 C          14.9697   37.5520   29.0086 C.3     1  UNL1        0.0575
      3 N          16.0063   39.4674   30.9173 N.am    1  UNL1       -0.2759
      4 C          14.7894   38.9100   31.0756 C.2     1  UNL1        0.2668
      5 O          14.3019   38.8223   32.1827 O.2     1  UNL1       -0.2709
      6 H          16.4019   39.5386   30.0186 H       1  UNL1        0.1554
      7 C          18.0261   39.7073   32.3712 C.ar    1  UNL1        0.0918
      8 C          18.4942   40.3313   33.5862 C.ar    1  UNL1       -0.0080
      9 C          17.6122   41.0809   34.2710 C.ar    1  UNL1        0.0326
     10 S          16.1263   40.9583   33.2973 S.2     1  UNL1       -0.0718
     11 C          16.7007   39.9403   32.0198 C.ar    1  UNL1        0.0867
     12 C          19.9109   40.1497   34.0671 C.3     1  UNL1        0.0231
     13 C          20.1221   39.3602   35.3605 C.3     1  UNL1        0.0047
     14 C          20.3204   40.8773   35.3492 C.3     1  UNL1        0.0047
     15 C          18.9032   38.8704   31.5499 C.2     1  UNL1        0.3426
     16 O          18.6631   37.6854   31.4165 O.2     1  UNL1       -0.2448
     17 O          19.9774   39.4135   30.9411 O.3     1  UNL1       -0.4454
     18 C          21.0752   40.1854   28.9090 C.3     1  UNL1        0.0513
     19 C          20.1382   39.1436   29.5235 C.3     1  UNL1        0.2089
     20 O          12.9364   37.5925   30.3143 O.3     1  UNL1       -0.4397
     21 C          11.6998   38.0002   29.9602 C.2     1  UNL1        0.3418
     22 O          10.8942   38.3139   30.8163 O.2     1  UNL1       -0.2449
     23 C          11.3395   38.0630   28.5916 C.2     1  UNL1        0.0835
     24 C          11.5301   36.9899   27.7928 C.2     1  UNL1        0.0292
     25 C          11.1564   37.0550   26.3731 C.ar    1  UNL1        0.1234
     26 C          10.6609   38.1625   25.7173 C.ar    1  UNL1        0.1179
     27 N          10.4534   37.7919   24.4366 N.ar    1  UNL1       -0.2257
     28 N          10.8319   36.4462   24.3353 N.ar    1  UNL1       -0.0635
     29 N          11.2439   36.0464   25.4873 N.ar    1  UNL1       -0.1287
     30 C           9.9315   38.6350   23.3581 C.3     1  UNL1        0.1556
     31 C          10.6372   39.9664   23.3752 C.ar    1  UNL1        0.0022
     32 C          10.2263   40.9553   24.2495 C.ar    1  UNL1       -0.0023
     33 C          10.8767   42.1749   24.2685 C.ar    1  UNL1       -0.0003
     34 C          11.9312   42.4095   23.4060 C.ar    1  UNL1       -0.0000
     35 C          12.3387   41.4224   22.5281 C.ar    1  UNL1       -0.0003
     36 C          11.6917   40.2010   22.5127 C.ar    1  UNL1       -0.0023
@<TRIPOS>BOND
     1    18    19    1
     2    19    17    1
     3    17    15    1
     4    15    16    2
     5    15     7    1
     6     7    11   ar
     7     7     8   ar
     8     8     9   ar
     9     8    12    1
    10     9    10   ar
    11    10    11   ar
    12    11     3    1
    13     3     4   am
    14     4     5    2
    15     4     1    1
    16     1     2    1
    17     1    20    1
    18    20    21    1
    19    21    22    2
    20    21    23    1
    21    23    24    2
    22    24    25    1
    23    25    29   ar
    24    25    26   ar
    25    26    27   ar
    26    27    28   ar
    27    27    30    1
    28    28    29   ar
    29    30    31    1
    30    31    36   ar
    31    31    32   ar
    32    32    33   ar
    33    33    34   ar
    34    34    35   ar
    35    35    36   ar
    36    12    14    1
    37    12    13    1
    38    13    14    1
    39     3     6    1
@<TRIPOS>MOLECULE
ZINC02639674
 36 39 0 0 0
SMALL
GASTEIGER

@<TRIPOS>ATOM
      1 C          25.2532   35.0278   31.2592 C.3     1  UNL1        0.1502
      2 N          25.3379   36.8320   29.5691 N.am    1  UNL1       -0.2781
      3 C          25.0304   36.4538   30.8256 C.2     1  UNL1        0.2379
      4 O          24.5745   37.2611   31.6075 O.2     1  UNL1       -0.2738
      5 H          25.7081   36.1766   28.9345 H       1  UNL1        0.1553
      6 C          24.0723   40.1039   28.2455 C.ar    1  UNL1       -0.0122
      7 C          25.1914   40.7635   28.5939 C.ar    1  UNL1        0.0051
      8 S          26.1999   39.4973   29.3358 S.2     1  UNL1       -0.0767
      9 C          25.1330   38.1435   29.1704 C.ar    1  UNL1        0.0864
     10 C          24.0181   38.6927   28.5459 C.ar    1  UNL1        0.0915
     11 C          25.5142   42.2231   28.4025 C.3     1  UNL1        0.0379
     12 C          22.0466   41.4824   28.6263 C.3     1  UNL1        0.0050
     13 C          22.9238   40.8078   27.5697 C.3     1  UNL1        0.0268
     14 C          22.8475   37.8796   28.2091 C.2     1  UNL1        0.3426
     15 O          22.5738   37.6608   27.0444 O.2     1  UNL1       -0.2448
     16 O          22.0731   37.3735   29.1905 O.3     1  UNL1       -0.4454
     17 C          21.5251   38.3157   30.1499 C.3     1  UNL1        0.2089
     18 C          20.0244   38.4811   29.9021 C.3     1  UNL1        0.0513
     19 S          27.0059   34.6031   31.0639 S.3     1  UNL1       -0.0655
     20 C          27.0077   32.8452   30.9435 C.ar    1  UNL1        0.1986
     21 N          26.9818   32.0041   31.9484 N.ar    1  UNL1       -0.1203
     22 N          26.9943   30.7050   31.4270 N.ar    1  UNL1       -0.1092
     23 C          27.0275   30.7907   30.1159 C.ar    1  UNL1        0.2410
     24 N          27.0307   32.1181   29.7840 N.ar    1  UNL1       -0.2549
     25 C          27.0568   32.5141   28.4483 C.ar    1  UNL1        0.0731
     26 C          27.0635   33.8566   28.1016 C.ar    1  UNL1        0.0178
     27 C          27.0891   34.2221   26.7703 C.ar    1  UNL1        0.0015
     28 C          27.1083   33.2581   25.7747 C.ar    1  UNL1        0.0003
     29 C          27.1020   31.9183   26.1014 C.ar    1  UNL1        0.0062
     30 C          27.0762   31.5369   27.4418 C.ar    1  UNL1        0.0725
     31 C          27.0682   30.1153   27.8329 C.ar    1  UNL1        0.2647
     32 O          27.0844   29.2409   26.9875 O.2     1  UNL1       -0.2668
     33 N          27.0522   29.8016   29.1445 N.ar    1  UNL1       -0.2609
     34 C          27.0416   28.3936   29.5489 C.3     1  UNL1        0.1384
     35 C          25.7059   28.0564   30.1599 C.2     1  UNL1       -0.0016
     36 C          24.6057   28.2442   29.4740 C.2     1  UNL1       -0.0029
@<TRIPOS>BOND
     1    12    13    1
     2    13     6    1
     3     6    10   ar
     4     6     7   ar
     5     7     8   ar
     6     7    11    1
     7     8     9   ar
     8     9    10   ar
     9     9     2    1
    10    10    14    1
    11    14    15    2
    12    14    16    1
    13    16    17    1
    14    17    18    1
    15     2     3   am
    16     3     4    2
    17     3     1    1
    18     1    19    1
    19    19    20    1
    20    20    24   ar
    21    20    21   ar
    22    21    22   ar
    23    22    23   ar
    24    23    33   ar
    25    23    24   ar
    26    24    25   ar
    27    25    30   ar
    28    25    26   ar
    29    26    27   ar
    30    27    28   ar
    31    28    29   ar
    32    29    30   ar
    33    30    31   ar
    34    31    32    2
    35    31    33   ar
    36    33    34    1
    37    34    35    1
    38    35    36    2
    39     2     5    1
@<TRIPOS>MOLECULE
ZINC13028000
 36 39 0 0 0
SMALL
GASTEIGER

@<TRIPOS>ATOM
      1 C          26.4895   42.8691   27.4081 C.ar    1  UNL1        0.1721
      2 N          26.3936   44.1930   27.7251 N.ar    1  UNL1       -0.3013
      3 C          25.2280   44.7020   28.1831 C.ar    1  UNL1        0.2636
      4 O          25.1311   45.8822   28.4698 O.2     1  UNL1       -0.2670
      5 C          24.1214   43.8269   28.3207 C.ar    1  UNL1        0.1127
      6 C          22.7881   43.9891   28.7518 C.ar    1  UNL1        0.1285
      7 N          22.1858   42.8358   28.6737 N.ar    1  UNL1       -0.1594
      8 N          23.0823   41.8689   28.2024 N.ar    1  UNL1       -0.1784
      9 C          24.2841   42.4748   27.9777 C.ar    1  UNL1        0.1750
     10 N          25.4709   42.0464   27.5317 N.ar    1  UNL1       -0.2034
     11 H          27.1768   44.7801   27.6198 H       1  UNL1        0.1709
     12 C          22.7953   40.5225   27.9933 C.ar    1  UNL1        0.2537
     13 N          23.4075   39.8762   27.0135 N.ar    1  UNL1       -0.2143
     14 C          23.1578   38.5972   26.7872 C.ar    1  UNL1        0.0637
     15 C          22.2428   37.9347   27.5908 C.ar    1  UNL1        0.0296
     16 C          21.6160   38.6438   28.6038 C.ar    1  UNL1        0.0637
     17 N          21.9165   39.9199   28.7788 N.ar    1  UNL1       -0.2143
     18 C          20.6096   37.9674   29.4985 C.3     1  UNL1        0.0522
     19 C          23.8595   37.8690   25.6700 C.3     1  UNL1        0.0522
     20 S          28.0260   42.2424   26.8156 S.3     1  UNL1       -0.0704
     21 C          28.3303   40.9458   28.0412 C.3     1  UNL1        0.1163
     22 C          29.8305   40.8578   28.3288 C.3     1  UNL1        0.0204
     23 C          27.8431   39.6241   27.5057 C.2     1  UNL1        0.1830
     24 O          28.2333   39.2252   26.4293 O.2     1  UNL1       -0.2904
     25 C          25.1065   37.2995   29.7641 C.ar    1  UNL1       -0.0222
     26 C          25.8502   36.7045   28.7599 C.ar    1  UNL1       -0.0042
     27 C          26.7418   37.4535   28.0213 C.ar    1  UNL1        0.0025
     28 C          26.8938   38.8176   28.2893 C.ar    1  UNL1        0.0355
     29 C          26.1432   39.4100   29.3098 C.ar    1  UNL1        0.0025
     30 C          25.2512   38.6490   30.0355 C.ar    1  UNL1       -0.0042
     31 C          24.1336   36.4738   30.5658 C.3     1  UNL1        0.0264
     32 C          24.9058   35.5028   31.4613 C.3     1  UNL1        0.0047
     33 C          25.0654   36.1121   32.8556 C.3     1  UNL1        0.0003
     34 C          26.5520   36.2011   33.2063 C.3     1  UNL1        0.0000
     35 C          28.3615   36.4296   31.4988 C.3     1  UNL1        0.0000
     36 C          27.3711   35.4605   32.1472 C.3     1  UNL1        0.0000
@<TRIPOS>BOND
     1    35    36    1
     2    36    34    1
     3    34    33    1
     4    33    32    1
     5    32    31    1
     6    31    25    1
     7    25    30   ar
     8    25    26   ar
     9    26    27   ar
    10    27    28   ar
    11    28    29   ar
    12    28    23    1
    13    29    30   ar
    14    23    24    2
    15    23    21    1
    16    21    22    1
    17    21    20    1
    18    20     1    1
    19     1    10   ar
    20     1     2   ar
    21     2     3   ar
    22     3     4    2
    23     3     5   ar
    24     5     9   ar
    25     5     6   ar
    26     6     7   ar
    27     7     8   ar
    28     8     9   ar
    29     8    12    1
    30     9    10   ar
    31    12    17   ar
    32    12    13   ar
    33    13    14   ar
    34    14    15   ar
    35    14    19    1
    36    15    16   ar
    37    16    17   ar
    38    16    18    1
    39     2    11    1
@<TRIPOS>MOLECULE
ZINC14570887
 34 36 0 0 0
SMALL
GASTEIGER

@<TRIPOS>ATOM
      1 C          25.6108   39.5342   24.5195 C.2     1  UNL1        0.2274
      2 O          24.9919   40.4893   24.9381 O.2     1  UNL1       -0.2747
      3 N          25.3532   38.3014   24.9996 N.am    1  UNL1       -0.2788
      4 H          25.8557   37.5260   24.6597 H       1  UNL1        0.1553
      5 C          24.3846   38.1260   25.9680 C.ar    1  UNL1        0.0868
      6 C          24.5427   38.0563   27.3567 C.ar    1  UNL1        0.0920
      7 C          23.4047   37.8740   28.1270 C.ar    1  UNL1       -0.0016
      8 C          22.2046   37.7749   27.4750 C.ar    1  UNL1        0.1025
      9 S          22.6729   37.9456   25.7634 S.2     1  UNL1       -0.0659
     10 C          23.4855   37.7876   29.6294 C.3     1  UNL1        0.0320
     11 C          20.8704   37.5831   28.0420 C.2     1  UNL1        0.3471
     12 O          20.4053   36.4630   28.1375 O.2     1  UNL1       -0.2443
     13 O          20.1551   38.6483   28.4593 O.3     1  UNL1       -0.4410
     14 C          19.8013   38.6905   29.8431 C.3     1  UNL1        0.2560
     15 C          25.8678   38.1716   27.9761 C.2     1  UNL1        0.3428
     16 O          26.4090   39.2576   28.0562 O.2     1  UNL1       -0.2448
     17 O          26.4853   37.0735   28.4566 O.3     1  UNL1       -0.4413
     18 C          27.5803   37.2866   29.3861 C.3     1  UNL1        0.2560
     19 C          26.6679   39.7257   23.4627 C.3     1  UNL1        0.0974
     20 C          26.8631   41.2205   23.2016 C.3     1  UNL1        0.0748
     21 S          26.6346   41.5600   21.4385 S.3     1  UNL1       -0.0734
     22 N          24.0836   41.0556   20.4248 N.ar    1  UNL1       -0.1863
     23 C          24.8754   41.6292   21.3658 C.ar    1  UNL1        0.2147
     24 N          24.0813   42.2493   22.2119 N.ar    1  UNL1       -0.1011
     25 N          22.8528   42.0956   21.8712 N.ar    1  UNL1       -0.0218
     26 N          22.7691   41.3846   20.7992 N.ar    1  UNL1       -0.0382
     27 C          25.3616   40.8210   15.6809 C.3     1  UNL1        0.0311
     28 C          25.1158   40.1545   17.0099 C.ar    1  UNL1       -0.0207
     29 C          25.2852   38.7882   17.1392 C.ar    1  UNL1       -0.0084
     30 C          25.0652   38.1738   18.3583 C.ar    1  UNL1       -0.0207
     31 C          24.6652   38.9220   19.4481 C.ar    1  UNL1        0.0150
     32 C          24.4891   40.2932   19.3201 C.ar    1  UNL1        0.0860
     33 C          24.7159   40.9080   18.0962 C.ar    1  UNL1        0.0150
     34 C          25.2570   36.6854   18.4966 C.3     1  UNL1        0.0311
@<TRIPOS>BOND
     1    27    28    1
     2    28    33   ar
     3    28    29   ar
     4    29    30   ar
     5    30    31   ar
     6    30    34    1
     7    31    32   ar
     8    32    33   ar
     9    32    22    1
    10    22    26   ar
    11    22    23   ar
    12    23    24   ar
    13    23    21    1
    14    24    25   ar
    15    25    26   ar
    16    21    20    1
    17    20    19    1
    18    19     1    1
    19     1     2    2
    20     1     3   am
    21     3     5    1
    22     5     9   ar
    23     5     6   ar
    24     6     7   ar
    25     6    15    1
    26     7     8   ar
    27     7    10    1
    28     8     9   ar
    29     8    11    1
    30    11    12    2
    31    11    13    1
    32    13    14    1
    33    15    16    2
    34    15    17    1
    35    17    18    1
    36     3     4    1
@<TRIPOS>MOLECULE
ZINC18274926
 35 38 0 0 0
SMALL
GASTEIGER

@<TRIPOS>ATOM
      1 C          24.1296   42.2125   27.9629 C.ar    1  UNL1        0.1727
      2 C          23.4186   41.1651   27.4156 C.ar    1  UNL1        0.0477
      3 C          23.9184   39.8608   27.5034 C.ar    1  UNL1        0.0923
      4 C          25.1376   39.6249   28.1596 C.ar    1  UNL1        0.0600
      5 C          25.8430   40.6859   28.7056 C.ar    1  UNL1        0.0549
      6 C          25.3437   41.9748   28.6091 C.ar    1  UNL1        0.1736
      7 N          25.6394   38.3289   28.2564 N.am    1  UNL1       -0.2797
      8 C          25.4433   37.6127   29.3812 C.2     1  UNL1        0.2555
      9 O          24.7639   38.0686   30.2822 O.2     1  UNL1       -0.2693
     10 H          26.1371   37.9362   27.5033 H       1  UNL1        0.1552
     11 C          26.0481   36.2852   29.5192 C.ar    1  UNL1        0.0831
     12 C          26.0189   35.4198   30.6021 C.ar    1  UNL1        0.0116
     13 C          26.6763   34.2229   30.4635 C.ar    1  UNL1        0.0076
     14 C          27.3127   33.9469   29.2950 C.ar    1  UNL1        0.0356
     15 S          27.0074   35.3577   28.3349 S.2     1  UNL1       -0.0819
     16 C          22.9133   43.9774   28.9949 C.3     1  UNL1        0.2526
     17 O          23.6460   43.4812   27.8728 O.3     1  UNL1       -0.4684
     18 O          26.0380   43.0109   29.1459 O.3     1  UNL1       -0.4683
     19 C          26.8433   43.7837   28.2536 C.3     1  UNL1        0.2526
     20 C          23.1669   38.7408   26.9161 C.2     1  UNL1        0.3430
     21 O          23.6424   38.1067   25.9946 O.2     1  UNL1       -0.2448
     22 O          21.9509   38.4178   27.3999 O.3     1  UNL1       -0.4350
     23 C          21.9039   37.4149   28.4488 C.3     1  UNL1        0.2957
     24 C          20.9154   37.8381   29.5046 C.ar    1  UNL1        0.2812
     25 N          21.1689   38.5762   30.5564 N.ar    1  UNL1       -0.1876
     26 C          19.9908   38.6941   31.2099 C.ar    1  UNL1        0.2034
     27 N          19.1001   38.0270   30.5232 N.ar    1  UNL1       -0.0559
     28 O          19.6139   37.5355   29.5405 O.2     1  UNL1       -0.3331
     29 C          19.7536   39.4402   32.4707 C.ar    1  UNL1        0.0392
     30 C          20.7676   39.5485   33.4201 C.ar    1  UNL1        0.0040
     31 C          20.5441   40.2482   34.5882 C.ar    1  UNL1        0.0115
     32 C          19.3107   40.8320   34.8228 C.ar    1  UNL1        0.0577
     33 C          18.2984   40.7228   33.8848 C.ar    1  UNL1        0.0115
     34 C          18.5142   40.0299   32.7111 C.ar    1  UNL1        0.0040
     35 CL         19.0331   41.7045   36.2978 Cl      1  UNL1       -0.0822
@<TRIPOS>BOND
     1    16    17    1
     2    17     1    1
     3     1     6   ar
     4     1     2   ar
     5     2     3   ar
     6     3     4   ar
     7     3    20    1
     8     4     5   ar
     9     4     7    1
    10     5     6   ar
    11     6    18    1
    12    18    19    1
    13     7     8   am
    14     8     9    2
    15     8    11    1
    16    11    15   ar
    17    11    12   ar
    18    12    13   ar
    19    13    14   ar
    20    14    15   ar
    21    20    21    2
    22    20    22    1
    23    22    23    1
    24    23    24    1
    25    24    28   ar
    26    24    25   ar
    27    25    26   ar
    28    26    27   ar
    29    26    29    1
    30    27    28   ar
    31    29    34   ar
    32    29    30   ar
    33    30    31   ar
    34    31    32   ar
    35    32    33   ar
    36    32    35    1
    37    33    34   ar
    38     7    10    1
@<TRIPOS>MOLECULE
ZINC03309972
 38 41 0 0 0
SMALL
GASTEIGER

@<TRIPOS>ATOM
      1 C          21.9681   38.9377   28.7572 C.2     1  UNL1        0.2711
      2 O          21.2009   39.6197   28.1116 O.2     1  UNL1       -0.2707
      3 N          23.2134   38.7049   28.2972 N.am    1  UNL1       -0.2757
      4 H          23.8362   38.1512   28.8213 H       1  UNL1        0.1554
      5 C          23.6167   39.2445   27.0876 C.ar    1  UNL1        0.0871
      6 C          24.3359   40.4159   26.8555 C.ar    1  UNL1        0.0958
      7 C          24.6266   40.7450   25.5309 C.ar    1  UNL1        0.0147
      8 C          24.1836   39.9030   24.5586 C.ar    1  UNL1        0.0309
      9 S          23.3493   38.6316   25.4886 S.2     1  UNL1       -0.0720
     10 C          24.3514   40.0149   23.0944 C.ar    1  UNL1        0.0060
     11 C          23.2340   40.0030   22.2578 C.ar    1  UNL1        0.0005
     12 C          23.3973   40.1132   20.8924 C.ar    1  UNL1        0.0000
     13 C          24.6658   40.2238   20.3510 C.ar    1  UNL1        0.0000
     14 C          25.7779   40.2310   21.1742 C.ar    1  UNL1        0.0000
     15 C          25.6283   40.1273   22.5417 C.ar    1  UNL1        0.0005
     16 C          24.7763   41.2681   27.9632 C.2     1  UNL1        0.3429
     17 O          25.1318   40.7661   29.0126 O.2     1  UNL1       -0.2448
     18 O          24.7929   42.6088   27.8173 O.3     1  UNL1       -0.4454
     19 C          24.5625   43.4046   29.0098 C.3     1  UNL1        0.2089
     20 C          23.2016   44.0961   28.9064 C.3     1  UNL1        0.0513
     21 C          21.5292   38.3503   30.0737 C.3     1  UNL1        0.2931
     22 O          20.5642   39.2357   30.7010 O.3     1  UNL1       -0.4342
     23 C          19.4012   38.6865   31.1031 C.2     1  UNL1        0.3613
     24 O          19.1004   37.5668   30.7399 O.2     1  UNL1       -0.2431
     25 N          16.3818   40.2441   32.3682 N.ar    1  UNL1       -0.2165
     26 C          16.6857   40.8392   33.5399 C.ar    1  UNL1        0.2763
     27 O          15.8359   41.4382   34.1732 O.2     1  UNL1       -0.2655
     28 C          18.0667   40.7481   34.0341 C.ar    1  UNL1        0.0593
     29 C          18.4814   41.3267   35.2295 C.ar    1  UNL1        0.0048
     30 C          19.7961   41.1955   35.6232 C.ar    1  UNL1        0.0002
     31 C          20.7047   40.4944   34.8411 C.ar    1  UNL1        0.0001
     32 C          20.3132   39.9138   33.6532 C.ar    1  UNL1        0.0019
     33 C          18.9904   40.0294   33.2405 C.ar    1  UNL1        0.0304
     34 C          18.4932   39.4449   31.9842 C.ar    1  UNL1        0.1764
     35 N          17.2322   39.6019   31.6605 N.ar    1  UNL1       -0.1602
     36 C          15.0036   40.3380   31.8802 C.3     1  UNL1        0.1307
     37 C          13.2651   38.7283   31.0872 C.3     1  UNL1        0.0021
     38 C          14.2569   39.0437   32.2088 C.3     1  UNL1        0.0265
@<TRIPOS>BOND
     1    37    38    1
     2    38    36    1
     3    36    25    1
     4    25    35   ar
     5    25    26   ar
     6    26    27    2
     7    26    28   ar
     8    28    33   ar
     9    28    29   ar
    10    29    30   ar
    11    30    31   ar
    12    31    32   ar
    13    32    33   ar
    14    33    34   ar
    15    34    35   ar
    16    34    23    1
    17    23    24    2
    18    23    22    1
    19    22    21    1
    20    21     1    1
    21     1     2    2
    22     1     3   am
    23     3     5    1
    24     5     9   ar
    25     5     6   ar
    26     6     7   ar
    27     6    16    1
    28     7     8   ar
    29     8     9   ar
    30     8    10    1
    31    10    15   ar
    32    10    11   ar
    33    11    12   ar
    34    12    13   ar
    35    13    14   ar
    36    14    15   ar
    37    16    17    2
    38    16    18    1
    39    18    19    1
    40    19    20    1
    41     3     4    1
@<TRIPOS>MOLECULE
ZINC04747965
 44 49 0 0 0
SMALL
GASTEIGER

@<TRIPOS>ATOM
      1 C          22.1509   39.2779   28.2760 C.3     1  UNL1        0.2045
      2 C          23.3353   38.2865   28.2520 C.3     1  UNL1        0.2439
      3 C          24.2771   38.8530   27.1659 C.3     1  UNL1        0.2604
      4 C          23.5502   40.1197   26.6624 C.3     1  UNL1        0.2522
      5 O          22.6917   40.5118   27.7556 O.3     1  UNL1       -0.3274
      6 N          24.5176   41.1798   26.3680 N.ar    1  UNL1       -0.2700
      7 C          24.9759   41.5327   25.1330 C.ar    1  UNL1        0.1816
      8 N          25.8249   42.5143   25.2462 N.ar    1  UNL1       -0.2202
      9 C          25.9546   42.8403   26.5521 C.ar    1  UNL1        0.1394
     10 C          25.1183   41.9958   27.2768 C.ar    1  UNL1        0.1456
     11 N          25.0740   42.1229   28.6392 N.ar    1  UNL1       -0.3215
     12 C          25.8167   43.0540   29.2675 C.ar    1  UNL1        0.1766
     13 N          26.6111   43.8715   28.6348 N.ar    1  UNL1       -0.2168
     14 C          26.7367   43.8314   27.2939 C.ar    1  UNL1        0.1389
     15 S          27.7838   44.9125   26.4778 S.2     1  UNL1       -0.0283
     16 H          24.4928   41.5272   29.1653 H       1  UNL1        0.1689
     17 C          21.6522   39.4773   29.7086 C.3     1  UNL1        0.2420
     18 O          20.7979   38.3645   30.0830 O.3     1  UNL1       -0.4426
     19 C          19.5685   38.6654   30.5441 C.2     1  UNL1        0.3413
     20 O          18.6050   38.5726   29.8103 O.2     1  UNL1       -0.2449
     21 C          19.0614   39.9391   34.5634 C.ar    1  UNL1        0.0000
     22 C          20.3326   39.7010   34.0717 C.ar    1  UNL1        0.0002
     23 C          20.5045   39.2869   32.7671 C.ar    1  UNL1        0.0064
     24 C          19.3920   39.1084   31.9424 C.ar    1  UNL1        0.0756
     25 C          18.1125   39.3558   32.4434 C.ar    1  UNL1        0.0064
     26 C          17.9546   39.7645   33.7515 C.ar    1  UNL1        0.0002
     27 O          25.5649   39.1998   27.7399 O.3     1  UNL1       -0.4406
     28 C          26.6600   38.7155   27.1225 C.2     1  UNL1        0.3413
     29 O          27.5824   39.4577   26.8512 O.2     1  UNL1       -0.2449
     30 C          26.7388   37.2817   26.7754 C.ar    1  UNL1        0.0756
     31 C          26.9406   36.3282   27.7752 C.ar    1  UNL1        0.0064
     32 C          27.0089   34.9906   27.4446 C.ar    1  UNL1        0.0002
     33 C          26.8881   34.5941   26.1245 C.ar    1  UNL1        0.0000
     34 C          26.6928   35.5341   25.1281 C.ar    1  UNL1        0.0002
     35 C          26.6177   36.8746   25.4453 C.ar    1  UNL1        0.0064
     36 O          24.0009   38.2578   29.5420 O.3     1  UNL1       -0.4425
     37 C          24.0023   37.0843   30.2035 C.2     1  UNL1        0.3413
     38 O          23.1262   36.2689   29.9956 O.2     1  UNL1       -0.2449
     39 C          25.0690   36.7890   31.1819 C.ar    1  UNL1        0.0756
     40 C          26.3979   37.0983   30.8850 C.ar    1  UNL1        0.0064
     41 C          27.3884   36.8251   31.8054 C.ar    1  UNL1        0.0002
     42 C          27.0690   36.2354   33.0157 C.ar    1  UNL1        0.0000
     43 C          25.7549   35.9211   33.3139 C.ar    1  UNL1        0.0002
     44 C          24.7538   36.1940   32.4050 C.ar    1  UNL1        0.0064
@<TRIPOS>BOND
     1    21    26   ar
     2    21    22   ar
     3    22    23   ar
     4    23    24   ar
     5    24    25   ar
     6    24    19    1
     7    25    26   ar
     8    19    20    2
     9    19    18    1
    10    18    17    1
    11    17     1    1
    12     1     5    1
    13     1     2    1
    14     2     3    1
    15     2    36    1
    16     3     4    1
    17     3    27    1
    18     4     5    1
    19     4     6    1
    20     6    10   ar
    21     6     7   ar
    22     7     8   ar
    23     8     9   ar
    24     9    14   ar
    25     9    10   ar
    26    10    11   ar
    27    11    12   ar
    28    12    13   ar
    29    13    14   ar
    30    14    15    2
    31    27    28    1
    32    28    29    2
    33    28    30    1
    34    30    35   ar
    35    30    31   ar
    36    31    32   ar
    37    32    33   ar
    38    33    34   ar
    39    34    35   ar
    40    36    37    1
    41    37    38    2
    42    37    39    1
    43    39    44   ar
    44    39    40   ar
    45    40    41   ar
    46    41    42   ar
    47    42    43   ar
    48    43    44   ar
    49    11    16    1
@<TRIPOS>MOLECULE
ZINC14811597
 36 38 0 0 0
SMALL
GASTEIGER

@<TRIPOS>ATOM
      1 N          14.6863   38.4300   28.9587 N.am    1  UNL1       -0.2757
      2 C          14.5046   37.1537   28.5657 C.2     1  UNL1        0.2711
      3 O          15.0209   36.2488   29.1862 O.2     1  UNL1       -0.2707
      4 H          14.2671   39.1646   28.4549 H       1  UNL1        0.1554
      5 C          15.0430   39.0318   31.3636 C.ar    1  UNL1        0.0920
      6 C          16.0218   39.2691   32.3162 C.ar    1  UNL1       -0.0016
      7 C          17.3295   39.1693   31.9227 C.ar    1  UNL1        0.1025
      8 S          17.1886   38.7314   30.2004 S.2     1  UNL1       -0.0659
      9 C          15.4605   38.7073   30.0680 C.ar    1  UNL1        0.0869
     10 C          15.6592   39.6249   33.7350 C.3     1  UNL1        0.0320
     11 C          13.6180   39.1184   31.7022 C.2     1  UNL1        0.3426
     12 O          13.1283   40.1903   32.0020 O.2     1  UNL1       -0.2448
     13 O          12.8513   38.0093   31.6809 O.3     1  UNL1       -0.4454
     14 C          11.1975   38.2678   29.9122 C.3     1  UNL1        0.0513
     15 C          11.4344   38.1923   31.4219 C.3     1  UNL1        0.2089
     16 C          18.5402   39.3668   32.7188 C.2     1  UNL1        0.3470
     17 O          19.2755   38.4260   32.9514 O.2     1  UNL1       -0.2443
     18 O          18.8418   40.5926   33.1954 O.3     1  UNL1       -0.4451
     19 C          19.9684   40.6899   34.0689 C.3     1  UNL1        0.2089
     20 C          19.5075   41.1789   35.4433 C.3     1  UNL1        0.0513
     21 C          13.6597   36.8511   27.3550 C.3     1  UNL1        0.2930
     22 O          12.8623   37.9925   27.0332 O.3     1  UNL1       -0.4353
     23 C          11.7926   37.7876   26.2368 C.2     1  UNL1        0.3419
     24 O          11.4392   36.6540   25.9724 O.2     1  UNL1       -0.2449
     25 C          11.0804   38.8935   25.7081 C.2     1  UNL1        0.0819
     26 C          11.5101   39.4957   24.5760 C.2     1  UNL1        0.0081
     27 C          10.7731   40.6401   24.0290 C.ar    1  UNL1        0.0179
     28 C           9.7771   41.2655   24.7742 C.ar    1  UNL1        0.0015
     29 C           9.0853   42.3510   24.2581 C.ar    1  UNL1        0.0001
     30 C           9.3406   42.8368   23.0111 C.ar    1  UNL1        0.0015
     31 C          10.3275   42.2510   22.2024 C.ar    1  UNL1        0.0177
     32 C          11.0657   41.1438   22.6862 C.ar    1  UNL1        0.0813
     33 N          12.0031   40.5820   21.9254 N.ar    1  UNL1       -0.2438
     34 C          12.2649   41.0340   20.7209 C.ar    1  UNL1        0.0988
     35 C          11.5782   42.1186   20.1820 C.ar    1  UNL1        0.0207
     36 C          10.6040   42.7401   20.9114 C.ar    1  UNL1        0.0031
@<TRIPOS>BOND
     1    14    15    1
     2    15    13    1
     3    13    11    1
     4    11    12    2
     5    11     5    1
     6     5     9   ar
     7     5     6   ar
     8     6     7   ar
     9     6    10    1
    10     7     8   ar
    11     7    16    1
    12     8     9   ar
    13     9     1    1
    14     1     2   am
    15     2     3    2
    16     2    21    1
    17    21    22    1
    18    22    23    1
    19    23    24    2
    20    23    25    1
    21    25    26    2
    22    26    27    1
    23    27    32   ar
    24    27    28   ar
    25    28    29   ar
    26    29    30   ar
    27    30    31   ar
    28    31    36   ar
    29    31    32   ar
    30    32    33   ar
    31    33    34   ar
    32    34    35   ar
    33    35    36   ar
    34    16    17    2
    35    16    18    1
    36    18    19    1
    37    19    20    1
    38     1     4    1
@<TRIPOS>MOLECULE
ZINC03222478
 42 46 0 0 0
SMALL
GASTEIGER

@<TRIPOS>ATOM
      1 N          22.6493   38.1579   29.6887 N.2     1  UNL1       -0.1772
      2 C          23.7953   37.9423   30.2594 C.2     1  UNL1        0.1207
      3 C          24.9613   37.5527   29.4466 C.ar    1  UNL1        0.0592
      4 C          25.5900   36.3379   29.4492 C.ar    1  UNL1        0.1035
      5 N          26.6118   36.3950   28.5705 N.ar    1  UNL1       -0.2281
      6 N          26.6490   37.6623   27.9808 N.ar    1  UNL1       -0.1650
      7 C          25.6714   38.3902   28.4762 C.ar    1  UNL1        0.1044
      8 C          25.3526   39.7943   28.1241 C.ar    1  UNL1        0.0227
      9 C          24.5946   40.0751   26.9882 C.ar    1  UNL1        0.0049
     10 C          24.3022   41.3826   26.6605 C.ar    1  UNL1        0.0401
     11 C          24.7551   42.4223   27.4615 C.ar    1  UNL1        0.1724
     12 C          25.5104   42.1478   28.5971 C.ar    1  UNL1        0.1724
     13 C          25.8096   40.8370   28.9281 C.ar    1  UNL1        0.0416
     14 O          25.9615   43.1553   29.3939 O.3     1  UNL1       -0.4684
     15 C          25.9620   44.4710   28.8294 C.3     1  UNL1        0.2526
     16 C          24.6102   44.6974   28.1389 C.3     1  UNL1        0.2526
     17 O          24.4562   43.7053   27.1185 O.3     1  UNL1       -0.4684
     18 C          27.4989   35.3473   28.2922 C.ar    1  UNL1        0.0828
     19 C          28.8291   35.6205   28.0021 C.ar    1  UNL1        0.0191
     20 C          29.7028   34.5848   27.7343 C.ar    1  UNL1        0.0015
     21 C          29.2512   33.2778   27.7428 C.ar    1  UNL1        0.0001
     22 C          27.9258   33.0029   28.0258 C.ar    1  UNL1        0.0015
     23 C          27.0487   34.0337   28.3004 C.ar    1  UNL1        0.0191
     24 C          20.2981   38.1944   30.0605 C.2     1  UNL1        0.2647
     25 O          20.1390   37.5714   29.0280 O.2     1  UNL1       -0.2684
     26 N          21.5408   38.5283   30.4613 N.am    1  UNL1       -0.2023
     27 H          21.6696   39.0326   31.2969 H       1  UNL1        0.1776
     28 C          16.7536   38.8883   31.0939 C.ar    1  UNL1        0.1754
     29 C          17.8455   38.5222   30.3296 C.ar    1  UNL1        0.0448
     30 C          19.1305   38.5845   30.8743 C.ar    1  UNL1        0.0612
     31 C          19.3078   39.0115   32.1928 C.ar    1  UNL1        0.0448
     32 C          18.2130   39.3819   32.9511 C.ar    1  UNL1        0.1754
     33 C          16.9334   39.3185   32.4059 C.ar    1  UNL1        0.2059
     34 O          15.5023   38.8279   30.5643 O.3     1  UNL1       -0.4723
     35 C          14.3931   37.2674   29.0895 C.3     1  UNL1        0.0512
     36 C          15.3947   38.4187   29.1994 C.3     1  UNL1        0.2057
     37 O          15.8581   39.6775   33.1555 O.3     1  UNL1       -0.4695
     38 C          15.4238   41.0354   33.0581 C.3     1  UNL1        0.2058
     39 C          15.4949   41.6937   34.4375 C.3     1  UNL1        0.0512
     40 O          18.3851   39.8026   34.2329 O.3     1  UNL1       -0.4723
     41 C          19.1876   40.9683   34.4308 C.3     1  UNL1        0.2057
     42 C          20.4321   40.5993   35.2409 C.3     1  UNL1        0.0512
@<TRIPOS>BOND
     1    35    36    1
     2    36    34    1
     3    34    28    1
     4    28    33   ar
     5    28    29   ar
     6    29    30   ar
     7    30    31   ar
     8    30    24    1
     9    31    32   ar
    10    32    33   ar
    11    32    40    1
    12    33    37    1
    13    37    38    1
    14    38    39    1
    15    40    41    1
    16    41    42    1
    17    24    25    2
    18    24    26   am
    19    26     1    1
    20     1     2    2
    21     2     3    1
    22     3     7   ar
    23     3     4   ar
    24     4     5   ar
    25     5     6   ar
    26     5    18    1
    27     6     7   ar
    28     7     8    1
    29     8    13   ar
    30     8     9   ar
    31     9    10   ar
    32    10    11   ar
    33    11    17    1
    34    11    12   ar
    35    12    13   ar
    36    12    14    1
    37    14    15    1
    38    15    16    1
    39    16    17    1
    40    18    23   ar
    41    18    19   ar
    42    19    20   ar
    43    20    21   ar
    44    21    22   ar
    45    22    23   ar
    46    26    27    1
@<TRIPOS>MOLECULE
ZINC27060230
 35 38 0 0 0
SMALL
GASTEIGER

@<TRIPOS>ATOM
      1 C          14.0541   38.0302   29.6698 C.ar    1  UNL1        0.0003
      2 C          13.2572   38.3085   30.7850 C.ar    1  UNL1        0.0013
      3 C          13.7967   38.9770   31.8635 C.ar    1  UNL1        0.0169
      4 C          15.1260   39.3622   31.8493 C.ar    1  UNL1        0.0893
      5 C          15.9211   39.0904   30.7494 C.ar    1  UNL1        0.0169
      6 C          15.3949   38.4278   29.6607 C.ar    1  UNL1        0.0013
      7 S          15.8078   40.2094   33.2356 S.O2    1  UNL1       -0.0577
      8 O          15.0025   41.3615   33.4438 O.2     1  UNL1       -0.1842
      9 O          16.0157   39.2326   34.2465 O.2     1  UNL1       -0.1842
     10 N          17.3063   40.7539   32.7883 N.pl3   1  UNL1       -0.5335
     11 C          18.4074   40.5393   33.6252 C.ar    1  UNL1       -0.0775
     12 C          18.6520   41.3983   34.6867 C.ar    1  UNL1       -0.0209
     13 C          19.7373   41.1815   35.5147 C.ar    1  UNL1       -0.0017
     14 C          20.5866   40.1158   35.2820 C.ar    1  UNL1        0.0030
     15 C          20.3521   39.2583   34.2226 C.ar    1  UNL1        0.0350
     16 C          19.2641   39.4659   33.3911 C.ar    1  UNL1        0.1167
     17 O          19.0327   38.6239   32.3483 O.3     1  UNL1       -0.4733
     18 C          19.8756   38.7630   31.2029 C.3     1  UNL1        0.2524
     19 C          12.1825   37.4843   28.1963 C.2     1  UNL1        0.0819
     20 C          13.4844   37.3229   28.5116 C.2     1  UNL1        0.0067
     21 C          11.6164   36.7817   27.0456 C.2     1  UNL1        0.3418
     22 O          11.9281   35.6270   26.8245 O.2     1  UNL1       -0.2449
     23 O          10.7483   37.4141   26.2293 O.3     1  UNL1       -0.4395
     24 C          10.3031   36.6139   23.9927 C.3     1  UNL1        0.0578
     25 C          11.1337   37.5610   24.8611 C.3     1  UNL1        0.2471
     26 C          10.8964   38.9830   24.4223 C.ar    1  UNL1        0.2770
     27 N          11.2758   39.5205   23.2904 N.ar    1  UNL1       -0.1851
     28 C          10.8445   40.8032   23.3343 C.ar    1  UNL1        0.2382
     29 N          10.2414   40.9678   24.4859 N.ar    1  UNL1       -0.0527
     30 O          10.2640   39.9331   25.1186 O.2     1  UNL1       -0.3332
     31 C          11.0254   41.8264   22.2842 C.ar    1  UNL1        0.1843
     32 C          12.0816   42.6756   22.1708 C.ar    1  UNL1        0.0440
     33 C          11.8417   43.4715   21.0341 C.ar    1  UNL1        0.0439
     34 C          10.6631   43.0734   20.5146 C.ar    1  UNL1        0.1798
     35 O          10.1756   42.0765   21.2691 O.2     1  UNL1       -0.4472
@<TRIPOS>UNITY_ATOM_ATTR
10 1
charge -1
@<TRIPOS>BOND
     1    24    25    1
     2    25    26    1
     3    25    23    1
     4    26    30   ar
     5    26    27   ar
     6    27    28   ar
     7    28    29   ar
     8    28    31    1
     9    29    30   ar
    10    31    35   ar
    11    31    32   ar
    12    32    33   ar
    13    33    34   ar
    14    34    35   ar
    15    23    21    1
    16    21    22    2
    17    21    19    1
    18    19    20    2
    19    20     1    1
    20     1     6   ar
    21     1     2   ar
    22     2     3   ar
    23     3     4   ar
    24     4     5   ar
    25     4     7    1
    26     5     6   ar
    27     7     8    2
    28     7     9    2
    29     7    10    1
    30    10    11    1
    31    11    16   ar
    32    11    12   ar
    33    12    13   ar
    34    13    14   ar
    35    14    15   ar
    36    15    16   ar
    37    16    17    1
    38    17    18    1
@<TRIPOS>MOLECULE
ZINC22834642
 35 37 0 0 0
SMALL
GASTEIGER

@<TRIPOS>ATOM
      1 C          24.9163   38.4301   27.6950 C.2     1  UNL1        0.2711
      2 O          24.7153   39.6074   27.9061 O.2     1  UNL1       -0.2707
      3 N          24.1683   37.4968   28.3161 N.am    1  UNL1       -0.2754
      4 H          24.3314   36.5411   28.1447 H       1  UNL1        0.1554
      5 C          23.1680   37.8829   29.1974 C.ar    1  UNL1        0.0899
      6 C          21.8118   38.0329   28.9492 C.ar    1  UNL1        0.0843
      7 C          20.9686   38.4525   30.0549 C.ar    1  UNL1       -0.0088
      8 C          21.6133   38.6546   31.2254 C.ar    1  UNL1        0.0052
      9 S          23.3118   38.3018   30.8725 S.2     1  UNL1       -0.0762
     10 C          21.0098   39.0883   32.5256 C.3     1  UNL1        0.0327
     11 C          19.6020   39.6350   32.2467 C.3     1  UNL1        0.0052
     12 C          18.8577   38.6447   31.3466 C.3     1  UNL1        0.0051
     13 C          19.4634   38.6609   29.9421 C.3     1  UNL1        0.0273
     14 C          18.8448   39.7984   33.5660 C.3     1  UNL1        0.0003
     15 C          17.3548   39.5392   33.3342 C.3     1  UNL1        0.0000
     16 C          19.3832   38.7975   34.5904 C.3     1  UNL1        0.0000
     17 C          19.0390   41.2216   34.0928 C.3     1  UNL1        0.0000
     18 C          19.6765   41.1684   35.4827 C.3     1  UNL1        0.0000
     19 C          21.2628   37.7826   27.6506 C.1     1  UNL1        0.1019
     20 N          20.8271   37.5840   26.6204 N.1     1  UNL1       -0.1908
     21 C          26.0025   38.0110   26.7380 C.3     1  UNL1        0.2931
     22 O          26.0464   36.5617   26.6605 O.3     1  UNL1       -0.4342
     23 C          27.1264   35.9535   27.1884 C.2     1  UNL1        0.3613
     24 O          28.2281   36.1569   26.7191 O.2     1  UNL1       -0.2431
     25 N          26.3254   34.7348   30.4993 N.ar    1  UNL1       -0.2165
     26 C          26.6577   33.4305   30.4783 C.ar    1  UNL1        0.2765
     27 O          26.4988   32.7404   31.4714 O.2     1  UNL1       -0.2655
     28 C          27.1921   32.8663   29.2984 C.ar    1  UNL1        0.0640
     29 C          27.3503   33.6801   28.2163 C.ar    1  UNL1        0.0324
     30 C          26.9706   35.0389   28.3386 C.ar    1  UNL1        0.1764
     31 N          26.4852   35.4903   29.4736 N.ar    1  UNL1       -0.1602
     32 C          25.7721   35.3092   31.7281 C.3     1  UNL1        0.1307
     33 C          26.6227   36.5055   32.1599 C.3     1  UNL1        0.0265
     34 C          26.5335   35.0079   34.1578 C.3     1  UNL1        0.0001
     35 C          26.9392   36.3939   33.6527 C.3     1  UNL1        0.0021
@<TRIPOS>BOND
     1    34    35    1
     2    35    33    1
     3    33    32    1
     4    32    25    1
     5    25    31   ar
     6    25    26   ar
     7    26    27    2
     8    26    28   ar
     9    28    29   ar
    10    29    30   ar
    11    30    31   ar
    12    30    23    1
    13    23    24    2
    14    23    22    1
    15    22    21    1
    16    21     1    1
    17     1     2    2
    18     1     3   am
    19     3     5    1
    20     5     9   ar
    21     5     6   ar
    22     6     7   ar
    23     6    19    1
    24     7    13    1
    25     7     8   ar
    26     8     9   ar
    27     8    10    1
    28    10    11    1
    29    11    12    1
    30    11    14    1
    31    12    13    1
    32    14    15    1
    33    14    16    1
    34    14    17    1
    35    17    18    1
    36    19    20    3
    37     3     4    1
@<TRIPOS>MOLECULE
ZINC02385596
 37 39 0 0 0
SMALL
GASTEIGER

@<TRIPOS>ATOM
      1 N          17.3947   38.7074   30.2318 N.pl3   1  UNL1       -0.3058
      2 H          17.9578   38.7696   29.4267 H       1  UNL1        0.1527
      3 C          15.0214   38.9030   31.0018 C.ar    1  UNL1        0.0919
      4 C          13.7124   38.6177   30.6469 C.ar    1  UNL1       -0.0016
      5 C          13.5012   37.9814   29.4528 C.ar    1  UNL1        0.1025
      6 S          15.1541   37.7869   28.8138 S.2     1  UNL1       -0.0659
      7 C          16.0339   38.5309   30.1087 C.ar    1  UNL1        0.0849
      8 C          12.5620   38.9884   31.5470 C.3     1  UNL1        0.0320
      9 C          15.3352   39.5755   32.2671 C.2     1  UNL1        0.3426
     10 O          15.2763   38.9597   33.3140 O.2     1  UNL1       -0.2448
     11 O          15.6891   40.8768   32.2693 O.3     1  UNL1       -0.4454
     12 C          17.3365   41.3694   33.9936 C.3     1  UNL1        0.0513
     13 C          15.8745   41.5072   33.5641 C.3     1  UNL1        0.2089
     14 C          12.2352   37.5646   28.8518 C.2     1  UNL1        0.3471
     15 O          11.1814   37.8990   29.3596 O.2     1  UNL1       -0.2443
     16 O          12.2354   36.8091   27.7338 O.3     1  UNL1       -0.4423
     17 C          11.2068   37.0672   26.7760 C.3     1  UNL1        0.2407
     18 C          11.5552   38.3266   25.9803 C.3     1  UNL1        0.1895
     19 O          11.7437   37.9846   24.6057 O.3     1  UNL1       -0.3471
     20 C          10.5755   38.1514   23.7997 C.3     1  UNL1        0.1743
     21 C          17.9637   38.7962   31.4735 C.2     1  UNL1        0.0747
     22 C          19.3099   38.9631   31.5952 C.2     1  UNL1        0.1067
     23 C          20.1444   39.1332   30.3899 C.ar    1  UNL1        0.1216
     24 N          20.9726   40.1182   30.0760 N.ar    1  UNL1       -0.2376
     25 C          21.6512   40.1072   28.9419 C.ar    1  UNL1        0.0881
     26 C          21.4878   39.0640   28.0703 C.ar    1  UNL1        0.0560
     27 S          20.2999   38.0688   28.9624 S.2     1  UNL1       -0.0652
     28 C          22.5772   41.2185   28.6133 C.ar    1  UNL1        0.0142
     29 C          22.1045   42.5284   28.5531 C.ar    1  UNL1        0.0009
     30 C          22.9713   43.5587   28.2512 C.ar    1  UNL1       -0.0042
     31 C          24.3054   43.2924   27.9992 C.ar    1  UNL1       -0.0222
     32 C          24.7788   41.9940   28.0523 C.ar    1  UNL1       -0.0085
     33 C          23.9219   40.9561   28.3580 C.ar    1  UNL1       -0.0207
     34 C          24.4391   39.5418   28.4150 C.3     1  UNL1        0.0311
     35 C          25.2460   44.4213   27.6648 C.3     1  UNL1        0.0310
     36 C          19.9163   38.9678   32.8925 C.1     1  UNL1        0.1038
     37 N          20.3974   38.9715   33.9215 N.1     1  UNL1       -0.1907
@<TRIPOS>BOND
     1    12    13    1
     2    13    11    1
     3    11     9    1
     4     9    10    2
     5     9     3    1
     6     3     7   ar
     7     3     4   ar
     8     4     5   ar
     9     4     8    1
    10     5     6   ar
    11     5    14    1
    12     6     7   ar
    13     7     1    1
    14     1    21    1
    15    21    22    2
    16    22    36    1
    17    22    23    1
    18    36    37    3
    19    23    27   ar
    20    23    24   ar
    21    24    25   ar
    22    25    26   ar
    23    25    28    1
    24    26    27   ar
    25    28    33   ar
    26    28    29   ar
    27    29    30   ar
    28    30    31   ar
    29    31    32   ar
    30    31    35    1
    31    32    33   ar
    32    33    34    1
    33    14    15    2
    34    14    16    1
    35    16    17    1
    36    17    18    1
    37    18    19    1
    38    19    20    1
    39     1     2    1
@<TRIPOS>MOLECULE
ZINC16052337
 40 43 0 0 0
SMALL
GASTEIGER

@<TRIPOS>ATOM
      1 S          25.0045   44.7290   28.5521 S.O2    1  UNL1        0.0659
      2 O          24.9712   45.1359   29.9132 O.2     1  UNL1       -0.1525
      3 O          26.2215   44.5102   27.8520 O.2     1  UNL1       -0.1525
      4 C          24.0893   43.2266   28.4530 C.ar    1  UNL1        0.1511
      5 C          24.5208   41.9843   28.1248 C.ar    1  UNL1        0.0268
      6 C          23.6139   40.9412   28.1119 C.ar    1  UNL1        0.0058
      7 C          22.3198   41.1915   28.4279 C.ar    1  UNL1        0.0285
      8 S          22.3529   42.9456   28.7584 S.2     1  UNL1       -0.0699
      9 C          21.1551   40.2369   28.4849 C.3     1  UNL1        0.1272
     10 N          21.5531   39.0232   29.2022 N.am    1  UNL1       -0.2664
     11 C          21.8148   37.8916   28.5185 C.2     1  UNL1        0.2636
     12 O          22.2356   36.9140   29.1015 O.2     1  UNL1       -0.2686
     13 C          21.5867   37.8407   27.0425 C.2     1  UNL1        0.1276
     14 O          20.5574   37.3736   26.6040 O.co2   1  UNL1       -0.5405
     15 O          22.5236   38.3131   26.2004 O.co2   1  UNL1       -0.5405
     16 C          21.6668   39.0395   30.6627 C.3     1  UNL1        0.1208
     17 C          20.2924   39.1408   31.2724 C.ar    1  UNL1       -0.0015
     18 C          19.2123   38.5485   30.6446 C.ar    1  UNL1       -0.0026
     19 C          17.9522   38.6368   31.2057 C.ar    1  UNL1        0.0006
     20 C          17.7694   39.3266   32.3896 C.ar    1  UNL1        0.0114
     21 C          18.8487   39.9240   33.0155 C.ar    1  UNL1        0.0574
     22 C          20.1109   39.8307   32.4560 C.ar    1  UNL1        0.0088
     23 CL         18.6198   40.7909   34.5020 Cl      1  UNL1       -0.0823
     24 N          24.1648   45.8712   27.6960 N.3     1  UNL1       -0.1789
     25 H          23.7073   45.3841   26.9254 H       1  UNL1        0.1488
     26 C          24.8702   47.0154   27.1138 C.3     1  UNL1        0.0921
     27 C          24.1858   48.3124   27.5502 C.3     1  UNL1        0.0276
     28 C          23.6359   49.0377   26.3203 C.3     1  UNL1        0.0460
     29 C          19.9692   50.9806   27.3343 C.ar    1  UNL1       -0.0000
     30 C          20.6950   50.3219   28.3091 C.ar    1  UNL1       -0.0003
     31 C          21.8814   49.6929   27.9809 C.ar    1  UNL1       -0.0040
     32 C          22.3423   49.7230   26.6779 C.ar    1  UNL1       -0.0184
     33 C          21.6194   50.3865   25.7043 C.ar    1  UNL1       -0.0040
     34 C          20.4304   51.0111   26.0314 C.ar    1  UNL1       -0.0003
     35 C          24.6358   50.0640   25.8536 C.ar    1  UNL1       -0.0184
     36 C          25.1663   49.9829   24.5797 C.ar    1  UNL1       -0.0040
     37 C          26.0799   50.9271   24.1500 C.ar    1  UNL1       -0.0003
     38 C          26.4705   51.9467   24.9976 C.ar    1  UNL1       -0.0000
     39 C          25.9444   52.0247   26.2735 C.ar    1  UNL1       -0.0003
     40 C          25.0268   51.0835   26.7015 C.ar    1  UNL1       -0.0040
@<TRIPOS>UNITY_ATOM_ATTR
15 1
charge -1
@<TRIPOS>BOND
     1    29    34   ar
     2    29    30   ar
     3    30    31   ar
     4    31    32   ar
     5    32    33   ar
     6    32    28    1
     7    33    34   ar
     8    28    27    1
     9    28    35    1
    10    27    26    1
    11    26    24    1
    12    24     1    1
    13     1     2    2
    14     1     3    2
    15     1     4    1
    16     4     8   ar
    17     4     5   ar
    18     5     6   ar
    19     6     7   ar
    20     7     8   ar
    21     7     9    1
    22     9    10    1
    23    10    16    1
    24    10    11   am
    25    16    17    1
    26    17    22   ar
    27    17    18   ar
    28    18    19   ar
    29    19    20   ar
    30    20    21   ar
    31    21    22   ar
    32    21    23    1
    33    11    12    2
    34    11    13    1
    35    13    14   ar
    36    13    15   ar
    37    35    40   ar
    38    35    36   ar
    39    36    37   ar
    40    37    38   ar
    41    38    39   ar
    42    39    40   ar
    43    24    25    1
@<TRIPOS>MOLECULE
ZINC30739863
 31 35 0 0 0
SMALL
GASTEIGER

@<TRIPOS>ATOM
      1 C          16.3057   40.2793   34.5171 C.3     1  UNL1        0.0312
      2 C          15.7021   39.8417   33.2074 C.ar    1  UNL1       -0.0173
      3 C          14.3417   39.8940   33.0138 C.ar    1  UNL1        0.0106
      4 C          13.7885   39.4911   31.8074 C.ar    1  UNL1        0.0596
      5 N          14.5599   39.0535   30.8314 N.ar    1  UNL1       -0.2431
      6 C          15.8665   38.9846   30.9675 C.ar    1  UNL1        0.1116
      7 C          16.5279   39.3704   32.1562 C.ar    1  UNL1        0.0367
      8 C          17.9743   39.2284   32.1320 C.ar    1  UNL1        0.0780
      9 C          18.5650   38.7440   30.9871 C.ar    1  UNL1        0.1225
     10 S          17.1835   38.4615   29.8975 S.2     1  UNL1       -0.0601
     11 C          12.2958   39.5542   31.6105 C.3     1  UNL1        0.0521
     12 N          18.7451   39.5751   33.2419 N.ar    1  UNL1       -0.3028
     13 C          19.1962   40.8305   33.5382 C.ar    1  UNL1        0.0802
     14 C          19.8996   40.7648   34.6865 C.ar    1  UNL1        0.0205
     15 C          19.8921   39.4205   35.1117 C.ar    1  UNL1        0.0205
     16 C          19.1795   38.7148   34.2107 C.ar    1  UNL1        0.0802
     17 C          19.9854   38.5161   30.7270 C.2     1  UNL1        0.3488
     18 O          20.8245   39.1685   31.3189 O.2     1  UNL1       -0.2443
     19 O          20.3658   37.5823   29.8303 O.3     1  UNL1       -0.4428
     20 C          21.6455   37.7543   29.2178 C.3     1  UNL1        0.2352
     21 C          21.4897   38.5659   27.9302 C.3     1  UNL1        0.1795
     22 N          22.1225   39.8763   28.0994 N.ar    1  UNL1       -0.1967
     23 C          23.4221   40.1671   27.8855 C.ar    1  UNL1        0.3524
     24 O          24.2811   39.3848   27.5169 O.2     1  UNL1       -0.2444
     25 N          23.6026   41.4764   28.1517 N.ar    1  UNL1       -0.2408
     26 C          24.7186   42.2772   28.0970 C.ar    1  UNL1        0.0859
     27 C          24.6437   43.5810   28.4168 C.ar    1  UNL1        0.0193
     28 C          23.4183   44.1530   28.8158 C.ar    1  UNL1        0.0047
     29 C          22.3037   43.3846   28.8783 C.ar    1  UNL1        0.0393
     30 C          22.3877   42.0102   28.5395 C.ar    1  UNL1        0.1708
     31 N          21.4861   41.0567   28.5071 N.ar    1  UNL1       -0.1473
@<TRIPOS>BOND
     1     1     2    1
     2     2     7   ar
     3     2     3   ar
     4     3     4   ar
     5     4     5   ar
     6     4    11    1
     7     5     6   ar
     8     6    10   ar
     9     6     7   ar
    10     7     8   ar
    11     8     9   ar
    12     8    12    1
    13     9    10   ar
    14     9    17    1
    15    17    18    2
    16    17    19    1
    17    19    20    1
    18    20    21    1
    19    21    22    1
    20    22    31   ar
    21    22    23   ar
    22    23    24    2
    23    23    25   ar
    24    25    30   ar
    25    25    26   ar
    26    26    27   ar
    27    27    28   ar
    28    28    29   ar
    29    29    30   ar
    30    30    31   ar
    31    12    16   ar
    32    12    13   ar
    33    13    14   ar
    34    14    15   ar
    35    15    16   ar
@<TRIPOS>MOLECULE
ZINC02297529
 33 36 0 0 0
SMALL
GASTEIGER

@<TRIPOS>ATOM
      1 C          24.9507   39.6479   27.9108 C.3     1  UNL1       -0.0853
      2 C          27.7409   38.3330   27.1955 C.3     1  UNL1        0.0535
      3 C          26.9458   38.0879   28.4520 C.ar    1  UNL1        0.0733
      4 C          25.7136   38.6695   28.7663 C.ar    1  UNL1       -0.0317
      5 C          25.3231   38.1915   29.9776 C.ar    1  UNL1       -0.0066
      6 N          26.2890   37.3383   30.4110 N.ar    1  UNL1       -0.2454
      7 N          27.2935   37.2977   29.4354 N.ar    1  UNL1       -0.1710
      8 O          24.1776   38.5076   30.6341 O.co2   1  UNL1       -0.8599
      9 C          26.2810   36.6262   31.6183 C.ar    1  UNL1        0.0814
     10 C          25.1719   35.8695   31.9721 C.ar    1  UNL1        0.0191
     11 C          25.1689   35.1650   33.1602 C.ar    1  UNL1        0.0015
     12 C          26.2644   35.2216   34.0020 C.ar    1  UNL1        0.0001
     13 C          27.3685   35.9781   33.6545 C.ar    1  UNL1        0.0015
     14 C          27.3797   36.6806   32.4654 C.ar    1  UNL1        0.0191
     15 C          23.5452   39.1449   27.7041 C.ar    1  UNL1       -0.0463
     16 C          23.2806   38.2245   26.7064 C.ar    1  UNL1       -0.0064
     17 C          21.9913   37.7656   26.5104 C.ar    1  UNL1        0.0027
     18 C          20.9637   38.2257   27.3113 C.ar    1  UNL1        0.0369
     19 C          21.2266   39.1489   28.3126 C.ar    1  UNL1        0.1387
     20 C          22.5214   39.6080   28.5073 C.ar    1  UNL1        0.0303
     21 O          20.2175   39.6034   29.1013 O.3     1  UNL1       -0.4707
     22 C          19.4666   38.6245   29.8225 C.3     1  UNL1        0.2320
     23 C          19.4441   38.9862   31.2853 C.ar    1  UNL1        0.0212
     24 C          20.6241   39.2784   31.9434 C.ar    1  UNL1       -0.0007
     25 C          20.6028   39.6153   33.2838 C.ar    1  UNL1       -0.0002
     26 C          19.4026   39.6494   33.9689 C.ar    1  UNL1       -0.0000
     27 C          18.2233   39.3517   33.3123 C.ar    1  UNL1       -0.0002
     28 C          18.2438   39.0203   31.9704 C.ar    1  UNL1       -0.0007
     29 C          24.9077   41.0093   28.6078 C.2     1  UNL1       -0.1086
     30 C          26.2192   41.2919   29.2135 C.1     1  UNL1       -0.1049
     31 N          27.2313   41.5102   29.6811 N.1     1  UNL1       -0.2340
     32 C          24.5867   42.0549   27.6226 C.1     1  UNL1       -0.1049
     33 N          24.3390   42.8620   26.8625 N.1     1  UNL1       -0.2340
@<TRIPOS>UNITY_ATOM_ATTR
8 1
charge -1
29 1
charge -1
@<TRIPOS>BOND
     1     2     3    1
     2     3     7   ar
     3     3     4   ar
     4     4     5   ar
     5     4     1    1
     6     5     6   ar
     7     5     8    1
     8     6     7   ar
     9     6     9    1
    10     9    14   ar
    11     9    10   ar
    12    10    11   ar
    13    11    12   ar
    14    12    13   ar
    15    13    14   ar
    16     1    15    1
    17     1    29    1
    18    15    20   ar
    19    15    16   ar
    20    16    17   ar
    21    17    18   ar
    22    18    19   ar
    23    19    20   ar
    24    19    21    1
    25    21    22    1
    26    22    23    1
    27    23    28   ar
    28    23    24   ar
    29    24    25   ar
    30    25    26   ar
    31    26    27   ar
    32    27    28   ar
    33    29    30    1
    34    29    32    1
    35    30    31    3
    36    32    33    3
@<TRIPOS>MOLECULE
ZINC06615950
 31 34 0 0 0
SMALL
GASTEIGER

@<TRIPOS>ATOM
      1 C          28.5699   33.9869   30.9677 C.3     1  UNL1        0.0000
      2 C          27.6628   33.3802   32.0723 C.3     1  UNL1        0.0000
      3 C          26.3340   34.1848   32.0383 C.3     1  UNL1       -0.0000
      4 C          26.3590   34.8025   30.6284 C.3     1  UNL1       -0.0000
      5 C          27.8276   35.2606   30.5249 C.3     1  UNL1       -0.0000
      6 C          28.1506   35.8007   29.1599 C.3     1  UNL1       -0.0000
      7 C          26.9557   36.5510   28.5513 C.3     1  UNL1       -0.0001
      8 C          26.0078   37.0676   29.6218 C.3     1  UNL1       -0.0025
      9 C          25.3721   35.9023   30.3758 C.3     1  UNL1       -0.0001
     10 C          24.6687   36.3988   31.6343 C.3     1  UNL1        0.0000
     11 C          23.8439   37.6470   31.2809 C.3     1  UNL1        0.0002
     12 C          23.6037   37.6526   29.7783 C.3     1  UNL1        0.0019
     13 C          24.8975   37.9368   29.0158 C.3     1  UNL1       -0.0297
     14 C          24.6989   37.6403   27.5388 C.3     1  UNL1       -0.1579
     15 C          23.5073   38.3719   26.9324 C.2     1  UNL1       -0.0759
     16 C          22.3360   38.4984   27.8641 C.2     1  UNL1        0.0199
     17 O          21.2053   38.4807   27.4137 O.2     1  UNL1       -0.3317
     18 C          22.5298   38.6506   29.3577 C.3     1  UNL1        0.0294
     19 C          25.3216   39.3942   29.2109 C.3     1  UNL1       -0.0027
     20 C          28.1592   36.3255   31.5881 C.3     1  UNL1        0.0000
     21 N          23.8942   39.6869   26.4151 N.pl3   1  UNL1       -0.1188
     22 O          24.5636   39.7695   25.4010 O.2     1  UNL1       -0.1660
     23 O          23.5462   40.6975   26.9992 O.2     1  UNL1       -0.1660
     24 C          28.7340   32.9866   29.8301 C.3     1  UNL1        0.0000
     25 C          30.2210   32.6970   29.6160 C.3     1  UNL1        0.0000
     26 C          28.0074   31.6875   30.1845 C.3     1  UNL1        0.0000
     27 C          27.2146   31.1991   28.9705 C.3     1  UNL1        0.0000
     28 C          27.0214   32.3561   27.9883 C.3     1  UNL1        0.0000
     29 C          27.0595   32.9767   25.5684 C.3     1  UNL1        0.0000
     30 C          27.4854   31.9255   26.5953 C.3     1  UNL1        0.0000
     31 C          26.8511   30.5793   26.2401 C.3     1  UNL1        0.0000
@<TRIPOS>UNITY_ATOM_ATTR
15 1
charge -1
@<TRIPOS>BOND
     1    29    30    1
     2    30    31    1
     3    30    28    1
     4    28    27    1
     5    27    26    1
     6    26    24    1
     7    24    25    1
     8    24     1    1
     9     1     5    1
    10     1     2    1
    11     2     3    1
    12     3     4    1
    13     4     9    1
    14     4     5    1
    15     5     6    1
    16     5    20    1
    17     6     7    1
    18     7     8    1
    19     8    13    1
    20     8     9    1
    21     9    10    1
    22    10    11    1
    23    11    12    1
    24    12    18    1
    25    12    13    1
    26    13    14    1
    27    13    19    1
    28    14    15    1
    29    15    16    1
    30    15    21    1
    31    16    17    2
    32    16    18    1
    33    21    22    2
    34    21    23    2
@<TRIPOS>MOLECULE
ZINC11926436
 31 34 0 0 0
SMALL
GASTEIGER

@<TRIPOS>ATOM
      1 S          19.7162   38.7766   30.3847 S.O2    1  UNL1       -0.0548
      2 O          19.9705   37.3786   30.4014 O.2     1  UNL1       -0.1841
      3 O          20.4875   39.7001   31.1407 O.2     1  UNL1       -0.1841
      4 N          15.8567   39.0506   30.8691 N.ar    1  UNL1       -0.2501
      5 C          16.9479   38.7777   30.1219 C.ar    1  UNL1        0.1134
      6 C          18.0408   38.9897   30.8870 C.ar    1  UNL1        0.1272
      7 C          17.6030   39.4055   32.1595 C.ar    1  UNL1        0.1180
      8 N          16.2875   39.4456   32.1421 N.ar    1  UNL1       -0.1680
      9 C          18.4717   39.7426   33.3147 C.ar    1  UNL1        0.0206
     10 C          19.1378   38.7331   34.0064 C.ar    1  UNL1        0.0016
     11 C          19.9490   39.0527   35.0765 C.ar    1  UNL1        0.0000
     12 C          20.0920   40.3712   35.4696 C.ar    1  UNL1        0.0000
     13 C          19.4284   41.3766   34.7900 C.ar    1  UNL1        0.0000
     14 C          18.6193   41.0689   33.7150 C.ar    1  UNL1        0.0016
     15 C          14.3055   37.7330   29.5131 C.3     1  UNL1        0.0263
     16 C          14.4641   38.9509   30.4255 C.3     1  UNL1        0.1054
     17 C          13.5505   38.7981   31.6433 C.3     1  UNL1        0.0263
     18 N          19.8185   39.2574   28.8034 N.pl3   1  UNL1       -0.5357
     19 C          20.9982   39.0437   28.0821 C.ar    1  UNL1       -0.1121
     20 C          21.1048   37.9503   27.2328 C.ar    1  UNL1       -0.0207
     21 C          22.2694   37.7403   26.5209 C.ar    1  UNL1        0.0356
     22 C          23.3326   38.6215   26.6540 C.ar    1  UNL1        0.1452
     23 C          23.2269   39.7141   27.5023 C.ar    1  UNL1        0.0356
     24 C          22.0630   39.9253   28.2148 C.ar    1  UNL1       -0.0207
     25 O          24.4790   38.4141   25.9527 O.3     1  UNL1       -0.4535
     26 C          25.3030   37.4129   26.3587 C.ar    1  UNL1        0.1453
     27 C          25.7665   36.4795   25.4424 C.ar    1  UNL1        0.0375
     28 C          26.6079   35.4655   25.8569 C.ar    1  UNL1        0.0031
     29 C          26.9803   35.3741   27.1854 C.ar    1  UNL1        0.0002
     30 C          26.5154   36.2994   28.1015 C.ar    1  UNL1        0.0031
     31 C          25.6780   37.3186   27.6913 C.ar    1  UNL1        0.0375
@<TRIPOS>UNITY_ATOM_ATTR
18 1
charge -1
@<TRIPOS>BOND
     1    15    16    1
     2    16    17    1
     3    16     4    1
     4     4     8   ar
     5     4     5   ar
     6     5     6   ar
     7     6     7   ar
     8     6     1    1
     9     7     8   ar
    10     7     9    1
    11     9    14   ar
    12     9    10   ar
    13    10    11   ar
    14    11    12   ar
    15    12    13   ar
    16    13    14   ar
    17     1     2    2
    18     1     3    2
    19     1    18    1
    20    18    19    1
    21    19    24   ar
    22    19    20   ar
    23    20    21   ar
    24    21    22   ar
    25    22    23   ar
    26    22    25    1
    27    23    24   ar
    28    25    26    1
    29    26    31   ar
    30    26    27   ar
    31    27    28   ar
    32    28    29   ar
    33    29    30   ar
    34    30    31   ar
@<TRIPOS>MOLECULE
ZINC29342278
 28 31 0 0 0
SMALL
GASTEIGER

@<TRIPOS>ATOM
      1 C          21.9464   39.5679   28.4772 C.ar    1  UNL1        0.1743
      2 N          21.6243   40.8127   28.7654 N.ar    1  UNL1       -0.2157
      3 C          22.4463   41.8144   28.4746 C.ar    1  UNL1        0.1174
      4 C          23.6860   41.6029   27.8463 C.ar    1  UNL1        0.0810
      5 C          24.4684   42.8117   27.6021 C.ar    1  UNL1        0.0191
      6 C          23.9532   44.0076   27.9778 C.ar    1  UNL1        0.0376
      7 S          22.3794   43.5740   28.6932 S.2     1  UNL1       -0.0673
      8 C          24.0108   40.2437   27.5510 C.ar    1  UNL1        0.2642
      9 O          25.0673   39.9653   27.0100 O.2     1  UNL1       -0.2669
     10 N          23.1340   39.2748   27.8717 N.ar    1  UNL1       -0.2775
     11 C          25.7934   42.7329   26.9525 C.ar    1  UNL1        0.0302
     12 C          26.1085   42.8157   25.6223 C.ar    1  UNL1        0.0070
     13 C          27.4320   42.7165   25.2481 C.ar    1  UNL1        0.0075
     14 C          28.3771   42.5306   26.2037 C.ar    1  UNL1        0.0354
     15 S          27.3989   42.4971   27.6966 S.2     1  UNL1       -0.0864
     16 C          23.4602   37.8796   27.5661 C.3     1  UNL1        0.0904
     17 C          23.5779   37.7037   26.0508 C.3     1  UNL1        0.0246
     18 C          24.7896   37.5101   28.2272 C.3     1  UNL1        0.0246
     19 S          20.8301   38.2653   28.8790 S.3     1  UNL1       -0.0672
     20 C          20.3757   38.7490   30.5630 C.3     1  UNL1        0.1527
     21 C          16.8943   38.9523   31.4155 C.ar    1  UNL1        0.1805
     22 N          18.1868   39.0810   31.7642 N.ar    1  UNL1       -0.1941
     23 C          18.8744   38.7639   30.6935 C.ar    1  UNL1        0.2477
     24 O          17.9894   38.4621   29.7387 O.2     1  UNL1       -0.3364
     25 N          16.8622   38.5707   30.1737 N.ar    1  UNL1       -0.0606
     26 C          15.7020   39.2049   32.3019 C.3     1  UNL1        0.0692
     27 C          15.8815   41.4440   33.3958 C.3     1  UNL1        0.0005
     28 C          16.1514   39.9472   33.5620 C.3     1  UNL1        0.0081
@<TRIPOS>BOND
     1    27    28    1
     2    28    26    1
     3    26    21    1
     4    21    25   ar
     5    21    22   ar
     6    22    23   ar
     7    23    24   ar
     8    23    20    1
     9    24    25   ar
    10    20    19    1
    11    19     1    1
    12     1    10   ar
    13     1     2   ar
    14     2     3   ar
    15     3     7   ar
    16     3     4   ar
    17     4     5   ar
    18     4     8   ar
    19     5     6   ar
    20     5    11    1
    21     6     7   ar
    22    11    15   ar
    23    11    12   ar
    24    12    13   ar
    25    13    14   ar
    26    14    15   ar
    27     8     9    2
    28     8    10   ar
    29    10    16    1
    30    16    17    1
    31    16    18    1
@<TRIPOS>MOLECULE
ZINC21601695
 28 31 0 0 0
SMALL
GASTEIGER

@<TRIPOS>ATOM
      1 N          25.6226   36.9041   31.1255 N.ar    1  UNL1       -0.2282
      2 C          24.3167   36.6563   30.9207 C.ar    1  UNL1        0.1019
      3 C          23.8388   37.6054   30.0358 C.ar    1  UNL1        0.0392
      4 C          24.9756   38.4788   29.7135 C.ar    1  UNL1        0.1087
      5 N          26.0124   38.0229   30.3840 N.ar    1  UNL1       -0.1645
      6 C          28.1247   34.6818   33.6091 C.ar    1  UNL1        0.0001
      7 C          26.9147   35.1491   34.0885 C.ar    1  UNL1        0.0015
      8 C          26.0831   35.8857   33.2679 C.ar    1  UNL1        0.0191
      9 C          26.4635   36.1574   31.9602 C.ar    1  UNL1        0.0828
     10 C          27.6770   35.6822   31.4801 C.ar    1  UNL1        0.0191
     11 C          28.5066   34.9511   32.3074 C.ar    1  UNL1        0.0015
     12 C          24.9584   39.6453   28.8092 C.ar    1  UNL1        0.0488
     13 C          24.1474   39.8912   27.7323 C.ar    1  UNL1        0.0086
     14 C          24.3176   41.0634   27.0299 C.ar    1  UNL1        0.0075
     15 C          25.2800   41.9372   27.4236 C.ar    1  UNL1        0.0355
     16 S          25.9838   41.1066   28.8383 S.2     1  UNL1       -0.0849
     17 C          22.4691   37.7210   29.5256 C.2     1  UNL1        0.0098
     18 C          21.5112   38.3027   30.2845 C.2     1  UNL1        0.0820
     19 C          20.1897   38.4142   29.7924 C.2     1  UNL1        0.3418
     20 O          19.9747   39.0174   28.7575 O.2     1  UNL1       -0.2449
     21 O          19.1672   37.8518   30.4706 O.3     1  UNL1       -0.4386
     22 C          18.4044   38.7090   31.3223 C.3     1  UNL1        0.2574
     23 C          16.9777   38.7565   30.8394 C.ar    1  UNL1        0.1429
     24 C          15.9363   39.1263   31.6368 C.ar    1  UNL1        0.1252
     25 S          14.6072   38.9823   30.5351 S.2     1  UNL1        0.0486
     26 N          15.3927   38.4976   29.2545 N.ar    1  UNL1       -0.1087
     27 N          16.6256   38.4390   29.6112 N.ar    1  UNL1       -0.1403
     28 CL         15.9406   39.6111   33.3037 Cl      1  UNL1       -0.0722
@<TRIPOS>BOND
     1     6    11   ar
     2     6     7   ar
     3     7     8   ar
     4     8     9   ar
     5     9    10   ar
     6     9     1    1
     7    10    11   ar
     8     1     5   ar
     9     1     2   ar
    10     2     3   ar
    11     3     4   ar
    12     3    17    1
    13     4     5   ar
    14     4    12    1
    15    12    16   ar
    16    12    13   ar
    17    13    14   ar
    18    14    15   ar
    19    15    16   ar
    20    17    18    2
    21    18    19    1
    22    19    20    2
    23    19    21    1
    24    21    22    1
    25    22    23    1
    26    23    27   ar
    27    23    24   ar
    28    24    25   ar
    29    24    28    1
    30    25    26   ar
    31    26    27   ar
@<TRIPOS>MOLECULE
ZINC16027786
 31 33 0 0 0
SMALL
GASTEIGER

@<TRIPOS>ATOM
      1 C          25.9468   41.2076   25.7696 C.3     1  UNL1        0.1805
      2 C          26.7054   40.7076   26.9820 C.3     1  UNL1        0.0653
      3 C          25.7841   40.1065   27.9724 C.2     1  UNL1       -0.0475
      4 C          24.7584   39.3654   27.8879 C.2     1  UNL1       -0.0407
      5 C          23.8758   38.9169   29.0586 C.3     1  UNL1        0.0471
      6 C          22.6011   38.3957   28.4470 C.2     1  UNL1       -0.0298
      7 C          22.7389   38.2353   27.1629 C.2     1  UNL1       -0.0410
      8 C          24.1054   38.6828   26.7044 C.3     1  UNL1        0.0764
      9 C          23.9605   39.6408   25.5384 C.3     1  UNL1        0.1836
     10 C          25.2979   40.1008   25.0044 C.3     1  UNL1        0.1282
     11 C          24.9423   40.4911   23.5535 C.3     1  UNL1        0.2308
     12 C          23.6308   39.7650   23.2976 C.2     1  UNL1        0.3537
     13 O          22.9735   39.8413   22.2867 O.2     1  UNL1       -0.2462
     14 O          23.3174   39.0203   24.3832 O.3     1  UNL1       -0.4490
     15 C          26.0235   40.0064   22.5856 C.3     1  UNL1        0.0556
     16 C          21.6747   37.6765   26.2539 C.3     1  UNL1        0.0265
     17 C          26.1336   40.4736   29.3916 C.3     1  UNL1        0.0258
     18 O          24.9224   42.1385   26.2081 O.3     1  UNL1       -0.4488
     19 C          25.3416   43.2836   26.7827 C.2     1  UNL1        0.3368
     20 O          26.1358   43.9987   26.2039 O.2     1  UNL1       -0.2453
     21 C          25.0645   44.8393   30.2605 C.3     1  UNL1        0.0306
     22 C          25.5759   44.4490   28.8977 C.2     1  UNL1       -0.0236
     23 C          24.8429   43.6643   28.1116 C.2     1  UNL1        0.0495
     24 C          23.5015   43.1659   28.5842 C.3     1  UNL1        0.0375
     25 O          24.7646   41.9278   23.4402 O.3     1  UNL1       -0.4417
     26 C          25.1116   42.4968   22.2686 C.2     1  UNL1        0.3371
     27 O          24.3162   42.5304   21.3502 O.2     1  UNL1       -0.2453
     28 C          26.4516   43.0765   22.1015 C.2     1  UNL1        0.0495
     29 C          27.1034   43.5608   23.1559 C.2     1  UNL1       -0.0236
     30 C          28.4775   44.1551   22.9845 C.3     1  UNL1        0.0306
     31 C          27.0877   43.1224   20.7361 C.3     1  UNL1        0.0375
@<TRIPOS>BOND
     1    21    22    1
     2    22    23    2
     3    23    24    1
     4    23    19    1
     5    19    20    2
     6    19    18    1
     7    18     1    1
     8     1    10    1
     9     1     2    1
    10     2     3    1
    11     3     4    2
    12     3    17    1
    13     4     8    1
    14     4     5    1
    15     5     6    1
    16     6     7    2
    17     7     8    1
    18     7    16    1
    19     8     9    1
    20     9    14    1
    21     9    10    1
    22    10    11    1
    23    11    12    1
    24    11    15    1
    25    11    25    1
    26    12    13    2
    27    12    14    1
    28    25    26    1
    29    26    27    2
    30    26    28    1
    31    28    29    2
    32    28    31    1
    33    29    30    1
@<TRIPOS>MOLECULE
ZINC21448897
 29 33 0 0 0
SMALL
GASTEIGER

@<TRIPOS>ATOM
      1 C          22.0996   39.8976   28.5137 C.ar    1  UNL1        0.1744
      2 N          21.7278   41.1582   28.6111 N.ar    1  UNL1       -0.2158
      3 C          22.6209   42.1377   28.5224 C.ar    1  UNL1        0.1168
      4 C          23.9861   41.8863   28.3233 C.ar    1  UNL1        0.0763
      5 C          24.8561   43.0717   28.2461 C.ar    1  UNL1       -0.0136
      6 C          24.2627   44.2696   28.3707 C.ar    1  UNL1        0.0049
      7 S          22.5368   43.9075   28.5983 S.2     1  UNL1       -0.0725
      8 C          25.2464   45.4046   28.2716 C.3     1  UNL1        0.0330
      9 C          26.5034   44.7734   27.6335 C.3     1  UNL1        0.0099
     10 C          26.3582   43.2968   28.0511 C.3     1  UNL1        0.0271
     11 C          24.3623   40.5103   28.2212 C.ar    1  UNL1        0.2640
     12 O          25.5281   40.1985   28.0476 O.2     1  UNL1       -0.2669
     13 N          23.4083   39.5651   28.3143 N.ar    1  UNL1       -0.2731
     14 S          20.8889   38.6233   28.6361 S.3     1  UNL1       -0.0693
     15 C          20.7009   38.5401   30.4344 C.3     1  UNL1        0.1293
     16 C          19.2364   38.5739   30.7885 C.2     1  UNL1        0.1615
     17 O          18.4047   38.3679   29.9377 O.2     1  UNL1       -0.2951
     18 C          17.9209   40.7500   34.2633 C.3     1  UNL1        0.0000
     19 C          19.3386   40.1742   34.2656 C.3     1  UNL1        0.0004
     20 C          19.7713   39.8787   32.8282 C.3     1  UNL1        0.0074
     21 C          18.8101   38.8649   32.2043 C.3     1  UNL1        0.0585
     22 C          17.3925   39.4407   32.2020 C.3     1  UNL1        0.0074
     23 C          16.9597   39.7362   33.6395 C.3     1  UNL1        0.0004
     24 C          23.7824   38.1529   28.2051 C.3     1  UNL1        0.1403
     25 C          24.6433   37.7589   29.4070 C.3     1  UNL1        0.1379
     26 C          23.8432   36.8389   30.3631 C.3     1  UNL1        0.0341
     27 C          24.9958   36.0776   31.0729 C.3     1  UNL1        0.0346
     28 C          26.0482   35.9555   29.9499 C.3     1  UNL1        0.1422
     29 O          25.7655   36.9706   28.9796 O.3     1  UNL1       -0.3543
@<TRIPOS>BOND
     1    18    23    1
     2    18    19    1
     3    19    20    1
     4    20    21    1
     5    21    22    1
     6    21    16    1
     7    22    23    1
     8    16    17    2
     9    16    15    1
    10    15    14    1
    11    14     1    1
    12     1    13   ar
    13     1     2   ar
    14     2     3   ar
    15     3     7   ar
    16     3     4   ar
    17     4     5   ar
    18     4    11   ar
    19     5    10    1
    20     5     6   ar
    21     6     7   ar
    22     6     8    1
    23     8     9    1
    24     9    10    1
    25    11    12    2
    26    11    13   ar
    27    13    24    1
    28    24    25    1
    29    25    29    1
    30    25    26    1
    31    26    27    1
    32    27    28    1
    33    28    29    1
@<TRIPOS>MOLECULE
ZINC27542026
 31 34 0 0 0
SMALL
GASTEIGER

@<TRIPOS>ATOM
      1 C          25.3118   36.1305   31.5189 C.ar    1  UNL1        0.0382
      2 C          25.5437   36.4282   32.8498 C.ar    1  UNL1        0.0966
      3 N          26.7344   35.9075   33.1858 N.ar    1  UNL1       -0.2483
      4 N          27.3005   35.2712   32.0779 N.ar    1  UNL1       -0.1692
      5 C          26.4837   35.3787   31.0547 C.ar    1  UNL1        0.1023
      6 C          26.7040   34.8431   29.6901 C.ar    1  UNL1        0.0194
      7 C          26.9097   33.4774   29.4996 C.ar    1  UNL1        0.0024
      8 C          27.1090   32.9833   28.2268 C.ar    1  UNL1        0.0114
      9 C          27.1157   33.8425   27.1412 C.ar    1  UNL1        0.0577
     10 C          26.9177   35.2003   27.3256 C.ar    1  UNL1        0.0114
     11 C          26.7121   35.7040   28.5936 C.ar    1  UNL1        0.0024
     12 CL         27.3737   33.2152   25.5431 Cl      1  UNL1       -0.0822
     13 C          23.7200   37.7873   30.6873 C.2     1  UNL1        0.0421
     14 C          24.1329   36.4984   30.7278 C.2     1  UNL1        0.0064
     15 C          22.5821   38.1424   29.9237 C.2     1  UNL1        0.1956
     16 O          22.6387   38.1352   28.7069 O.2     1  UNL1       -0.2866
     17 C          18.9692   39.2336   31.8757 C.ar    1  UNL1        0.0829
     18 C          20.1896   39.4381   32.5103 C.ar    1  UNL1        0.0193
     19 C          21.3626   39.0854   31.8806 C.ar    1  UNL1        0.0047
     20 C          21.3254   38.5217   30.6028 C.ar    1  UNL1        0.0390
     21 C          20.0975   38.3178   29.9683 C.ar    1  UNL1        0.0047
     22 C          18.9285   38.6729   30.6038 C.ar    1  UNL1        0.0193
     23 C          15.6604   39.7687   33.0316 C.ar    1  UNL1        0.0431
     24 C          16.3999   40.5183   33.9536 C.ar    1  UNL1        0.1221
     25 N          17.6676   40.4138   33.6477 N.ar    1  UNL1       -0.1635
     26 N          17.7802   39.5926   32.5183 N.ar    1  UNL1       -0.2281
     27 C          16.5278   39.2121   32.1550 C.ar    1  UNL1        0.1020
     28 C          27.3506   35.9986   34.5119 C.3     1  UNL1        0.1436
     29 C          27.9804   34.6523   34.8751 C.3     1  UNL1        0.1317
     30 C          27.3353   34.1197   36.0863 C.1     1  UNL1        0.0753
     31 N          26.8375   33.7088   37.0211 N.1     1  UNL1       -0.1958
@<TRIPOS>BOND
     1    23    27   ar
     2    23    24   ar
     3    24    25   ar
     4    25    26   ar
     5    26    27   ar
     6    26    17    1
     7    17    22   ar
     8    17    18   ar
     9    18    19   ar
    10    19    20   ar
    11    20    21   ar
    12    20    15    1
    13    21    22   ar
    14    15    16    2
    15    15    13    1
    16    13    14    2
    17    14     1    1
    18     1     5   ar
    19     1     2   ar
    20     2     3   ar
    21     3     4   ar
    22     3    28    1
    23     4     5   ar
    24     5     6    1
    25     6    11   ar
    26     6     7   ar
    27     7     8   ar
    28     8     9   ar
    29     9    10   ar
    30     9    12    1
    31    10    11   ar
    32    28    29    1
    33    29    30    1
    34    30    31    3
@<TRIPOS>MOLECULE
ZINC06892122
 30 34 0 0 0
SMALL
GASTEIGER

@<TRIPOS>ATOM
      1 N          26.2362   37.1170   29.8073 N.am    1  UNL1       -0.2751
      2 C          26.7647   36.7524   28.6223 C.2     1  UNL1        0.2249
      3 O          26.7780   37.5367   27.6972 O.2     1  UNL1       -0.2749
      4 C          27.3392   35.3704   28.4467 C.3     1  UNL1        0.0691
      5 C          28.8215   35.3825   28.8255 C.3     1  UNL1        0.0086
      6 C          29.4049   33.9793   28.6472 C.3     1  UNL1        0.0005
      7 C          28.6558   32.9971   29.5500 C.3     1  UNL1        0.0000
      8 C          27.1734   32.9850   29.1712 C.3     1  UNL1        0.0005
      9 C          26.5901   34.3881   29.3495 C.3     1  UNL1        0.0086
     10 C          27.0237   32.5520   27.7115 C.3     1  UNL1        0.0000
     11 C          27.7727   33.5342   26.8087 C.3     1  UNL1        0.0005
     12 C          29.2551   33.5463   27.1875 C.3     1  UNL1        0.0000
     13 C          27.1894   34.9374   26.9869 C.3     1  UNL1        0.0086
     14 C          26.3273   36.2154   30.9584 C.3     1  UNL1        0.0757
     15 C          25.0509   36.3256   31.7948 C.3     1  UNL1        0.0198
     16 C          25.1460   35.3840   32.9969 C.3     1  UNL1        0.0017
     17 C          26.3525   35.7717   33.8542 C.3     1  UNL1        0.0001
     18 C          27.6290   35.6615   33.0178 C.3     1  UNL1        0.0017
     19 C          27.5338   36.6032   31.8156 C.3     1  UNL1        0.0198
     20 C          25.5705   38.4149   29.9442 C.3     1  UNL1        0.1460
     21 C          22.1887   37.9286   28.4391 C.ar    1  UNL1        0.1634
     22 C          22.3868   38.7551   27.3614 C.ar    1  UNL1        0.0623
     23 S          24.0096   39.3029   27.6389 S.2     1  UNL1       -0.0684
     24 C          24.3195   38.4289   29.1041 C.ar    1  UNL1        0.1086
     25 N          23.1963   37.7894   29.3024 N.ar    1  UNL1       -0.2344
     26 C          20.9129   37.2229   28.6350 C.2     1  UNL1        0.3597
     27 O          20.5066   36.4544   27.7853 O.2     1  UNL1       -0.2432
     28 O          20.1942   37.4286   29.7568 O.3     1  UNL1       -0.4444
     29 C          20.1883   39.2461   31.3775 C.3     1  UNL1        0.0513
     30 C          19.7202   38.7797   29.9975 C.3     1  UNL1        0.2089
@<TRIPOS>BOND
     1    29    30    1
     2    30    28    1
     3    28    26    1
     4    26    27    2
     5    26    21    1
     6    21    25   ar
     7    21    22   ar
     8    22    23   ar
     9    23    24   ar
    10    24    25   ar
    11    24    20    1
    12    20     1    1
    13     1    14    1
    14     1     2   am
    15    14    19    1
    16    14    15    1
    17    15    16    1
    18    16    17    1
    19    17    18    1
    20    18    19    1
    21     2     3    2
    22     2     4    1
    23     4     9    1
    24     4    13    1
    25     4     5    1
    26     5     6    1
    27     6    12    1
    28     6     7    1
    29     7     8    1
    30     8     9    1
    31     8    10    1
    32    10    11    1
    33    11    12    1
    34    11    13    1
@<TRIPOS>MOLECULE
ZINC19706424
 30 34 0 0 0
SMALL
GASTEIGER

@<TRIPOS>ATOM
      1 C          19.1383   39.0541   32.1193 C.ar    1  UNL1        0.1409
      2 C          20.3953   38.8368   31.5730 C.ar    1  UNL1        0.0801
      3 C          20.5500   38.5732   30.2065 C.ar    1  UNL1        0.0934
      4 C          21.9339   38.3597   29.7443 C.ar    1  UNL1        0.0380
      5 C          22.3640   38.0794   28.4203 C.ar    1  UNL1       -0.0200
      6 C          23.6882   37.9185   28.1711 C.ar    1  UNL1        0.0056
      7 C          24.6109   38.0122   29.2226 C.ar    1  UNL1        0.1280
      8 N          24.2070   38.2725   30.4545 N.ar    1  UNL1       -0.2245
      9 C          22.9308   38.4440   30.7290 C.ar    1  UNL1        0.1133
     10 S          22.0423   38.8009   32.2249 S.2     1  UNL1       -0.0636
     11 C          24.2234   37.6276   26.7926 C.3     1  UNL1        0.0289
     12 C          23.1081   37.1270   25.8768 C.3     1  UNL1        0.0051
     13 C          21.9311   38.1059   25.9668 C.3     1  UNL1        0.0050
     14 C          21.3064   37.9791   27.3554 C.3     1  UNL1        0.0263
     15 N          19.4135   38.5465   29.4741 N.ar    1  UNL1       -0.2233
     16 C          18.2436   38.7562   30.0232 C.ar    1  UNL1        0.2001
     17 N          18.0807   39.0056   31.3098 N.ar    1  UNL1       -0.2085
     18 N          25.9638   37.8355   28.9664 N.pl3   1  UNL1       -0.2883
     19 C          26.6315   39.1267   28.7473 C.3     1  UNL1        0.1242
     20 C          28.1048   38.8825   28.4103 C.3     1  UNL1        0.1636
     21 O          28.7118   38.1312   29.4651 O.3     1  UNL1       -0.3501
     22 C          28.0867   36.8674   29.7051 C.3     1  UNL1        0.1636
     23 C          26.6132   37.0912   30.0553 C.3     1  UNL1        0.1242
     24 N          18.9866   39.3143   33.4726 N.pl3   1  UNL1       -0.2928
     25 C          19.7539   40.5024   33.8695 C.3     1  UNL1        0.0922
     26 C          20.4522   40.2360   35.2046 C.3     1  UNL1        0.0232
     27 C          17.5680   39.4621   33.8244 C.3     1  UNL1        0.0922
     28 C          17.2552   40.9391   34.0725 C.3     1  UNL1        0.0215
     29 C          15.2465   40.0051   32.9171 C.3     1  UNL1        0.0001
     30 C          15.8463   41.2541   33.5661 C.3     1  UNL1        0.0018
@<TRIPOS>BOND
     1    29    30    1
     2    30    28    1
     3    28    27    1
     4    27    24    1
     5    24    25    1
     6    24     1    1
     7    25    26    1
     8     1    17   ar
     9     1     2   ar
    10     2    10   ar
    11     2     3   ar
    12     3     4   ar
    13     3    15   ar
    14     4     9   ar
    15     4     5   ar
    16     5    14    1
    17     5     6   ar
    18     6     7   ar
    19     6    11    1
    20     7     8   ar
    21     7    18    1
    22     8     9   ar
    23     9    10   ar
    24    18    23    1
    25    18    19    1
    26    19    20    1
    27    20    21    1
    28    21    22    1
    29    22    23    1
    30    11    12    1
    31    12    13    1
    32    13    14    1
    33    15    16   ar
    34    16    17   ar
@<TRIPOS>MOLECULE
ZINC26698804
 30 33 0 0 0
SMALL
GASTEIGER

@<TRIPOS>ATOM
      1 C          20.2589   37.9813   29.4405 C.ar    1  UNL1        0.1670
      2 N          20.5121   36.7077   29.2450 N.ar    1  UNL1       -0.1282
      3 N          21.1576   36.5531   28.1446 N.ar    1  UNL1       -0.1217
      4 C          21.3558   37.7182   27.5707 C.ar    1  UNL1        0.1989
      5 N          20.7913   38.6669   28.3745 N.ar    1  UNL1       -0.2859
      6 C          20.3543   40.2584   33.8797 C.3     1  UNL1        0.0310
      7 C          19.5831   39.6639   32.7295 C.ar    1  UNL1       -0.0218
      8 C          18.1995   39.6662   32.7515 C.ar    1  UNL1       -0.0043
      9 C          17.4840   39.1225   31.6997 C.ar    1  UNL1       -0.0002
     10 C          18.1469   38.5734   30.6212 C.ar    1  UNL1        0.0030
     11 C          19.5421   38.5679   30.5929 C.ar    1  UNL1        0.0356
     12 C          20.2580   39.1134   31.6598 C.ar    1  UNL1       -0.0012
     13 C          20.7592   40.1138   28.1478 C.3     1  UNL1        0.1359
     14 C          21.8800   40.7675   28.9141 C.2     1  UNL1       -0.0017
     15 C          22.2183   42.0054   28.6513 C.2     1  UNL1       -0.0029
     16 S          22.1931   38.0034   26.0467 S.3     1  UNL1       -0.0294
     17 C          23.5880   38.9092   26.6288 C.ar    1  UNL1        0.1192
     18 C          23.9545   40.0998   26.0306 C.ar    1  UNL1        0.0408
     19 C          25.0626   40.7874   26.5182 C.ar    1  UNL1        0.0645
     20 N          25.7505   40.3095   27.5343 N.ar    1  UNL1       -0.2142
     21 C          25.4081   39.1584   28.1239 C.ar    1  UNL1        0.2546
     22 N          24.3249   38.4510   27.6841 N.ar    1  UNL1       -0.1888
     23 N          24.2323   37.3182   28.5025 N.ar    1  UNL1       -0.1385
     24 C          25.2152   37.3876   29.3670 C.ar    1  UNL1        0.2567
     25 N          25.9301   38.4831   29.1421 N.ar    1  UNL1       -0.1856
     26 C          25.4774   42.0876   25.8791 C.3     1  UNL1        0.0523
     27 C          25.4986   36.3713   30.4430 C.3     1  UNL1        0.4541
     28 F          24.2942   35.9567   31.0217 F       1  UNL1       -0.1631
     29 F          26.1507   35.2679   29.8822 F       1  UNL1       -0.1631
     30 F          26.3139   36.9458   31.4241 F       1  UNL1       -0.1631
@<TRIPOS>BOND
     1     6     7    1
     2     7    12   ar
     3     7     8   ar
     4     8     9   ar
     5     9    10   ar
     6    10    11   ar
     7    11    12   ar
     8    11     1    1
     9     1     5   ar
    10     1     2   ar
    11     2     3   ar
    12     3     4   ar
    13     4     5   ar
    14     4    16    1
    15     5    13    1
    16    13    14    1
    17    14    15    2
    18    16    17    1
    19    17    22   ar
    20    17    18   ar
    21    18    19   ar
    22    19    20   ar
    23    19    26    1
    24    20    21   ar
    25    21    25   ar
    26    21    22   ar
    27    22    23   ar
    28    23    24   ar
    29    24    25   ar
    30    24    27    1
    31    27    28    1
    32    27    29    1
    33    27    30    1
@<TRIPOS>MOLECULE
ZINC13114602
 28 31 0 0 0
SMALL
GASTEIGER

@<TRIPOS>ATOM
      1 C          23.3474   38.0586   29.0930 C.ar    1  UNL1        0.0465
      2 C          23.6093   37.4710   30.2948 C.ar    1  UNL1        0.0110
      3 C          24.7814   36.7153   30.4577 C.ar    1  UNL1        0.0392
      4 C          25.4489   35.9543   31.4719 C.ar    1  UNL1        0.0809
      5 N          26.5526   35.4734   30.9846 N.ar    1  UNL1       -0.1729
      6 N          26.6857   35.8740   29.6490 N.ar    1  UNL1       -0.2407
      7 C          25.6140   36.6247   29.3323 C.ar    1  UNL1        0.1088
      8 S          24.7505   37.5700   28.1043 S.2     1  UNL1       -0.0671
      9 C          24.9500   35.7451   32.8784 C.3     1  UNL1        0.0540
     10 C          22.1975   38.8812   28.7074 C.2     1  UNL1        0.0888
     11 O          22.3573   40.0520   28.4155 O.2     1  UNL1       -0.3124
     12 N          20.9630   38.3412   28.6758 N.am    1  UNL1       -0.5883
     13 C          18.7647   39.0661   32.0203 C.ar    1  UNL1        0.1577
     14 N          18.1216   38.5467   30.9910 N.ar    1  UNL1       -0.1363
     15 N          18.8017   38.2749   29.8263 N.ar    1  UNL1       -0.1652
     16 C          20.0916   38.5342   29.7435 C.ar    1  UNL1        0.0183
     17 S          20.4204   39.2075   31.3651 S.2     1  UNL1       -0.0641
     18 S          18.1520   39.5086   33.6119 S.3     1  UNL1       -0.0867
     19 C          20.1663   40.5036   35.1722 C.3     1  UNL1        0.0130
     20 C          19.5451   39.1785   34.7258 C.3     1  UNL1        0.0642
     21 C          27.7952   35.5353   28.7544 C.3     1  UNL1        0.1544
     22 C          27.5359   34.1943   28.1177 C.ar    1  UNL1        0.0021
     23 C          27.3205   34.1061   26.7550 C.ar    1  UNL1       -0.0027
     24 C          27.0865   32.8755   26.1704 C.ar    1  UNL1       -0.0045
     25 C          27.0598   31.7340   26.9497 C.ar    1  UNL1       -0.0219
     26 C          27.2700   31.8228   28.3131 C.ar    1  UNL1       -0.0045
     27 C          27.5078   33.0530   28.8971 C.ar    1  UNL1       -0.0027
     28 C          26.8010   30.3929   26.3130 C.3     1  UNL1        0.0310
@<TRIPOS>UNITY_ATOM_ATTR
12 1
charge -1
@<TRIPOS>BOND
     1    19    20    1
     2    20    18    1
     3    18    13    1
     4    13    17   ar
     5    13    14   ar
     6    14    15   ar
     7    15    16   ar
     8    16    17   ar
     9    16    12    1
    10    12    10    1
    11    10    11    2
    12    10     1    1
    13     1     8   ar
    14     1     2   ar
    15     2     3   ar
    16     3     7   ar
    17     3     4   ar
    18     4     5   ar
    19     4     9    1
    20     5     6   ar
    21     6     7   ar
    22     6    21    1
    23     7     8   ar
    24    21    22    1
    25    22    27   ar
    26    22    23   ar
    27    23    24   ar
    28    24    25   ar
    29    25    26   ar
    30    25    28    1
    31    26    27   ar
@<TRIPOS>MOLECULE
ZINC00669006
 27 29 0 0 0
SMALL
GASTEIGER

@<TRIPOS>ATOM
      1 C          23.3368   39.1032   28.9011 C.ar    1  UNL1        0.1604
      2 C          23.2610   37.7664   29.1707 C.ar    1  UNL1        0.0417
      3 C          21.9138   37.4864   29.4472 C.ar    1  UNL1        0.0400
      4 C          21.2333   38.6478   29.3269 C.ar    1  UNL1        0.1669
      5 O          22.0947   39.6203   29.0013 O.2     1  UNL1       -0.4528
      6 C          24.5545   39.8460   28.5620 C.2     1  UNL1        0.1164
      7 O          25.6218   39.5187   29.0466 O.2     1  UNL1       -0.3098
      8 N          24.4919   40.8913   27.7134 N.am    1  UNL1       -0.6077
      9 C          25.5123   42.9807   28.4358 C.ar    1  UNL1        0.0823
     10 C          24.3860   42.1884   28.2122 C.ar    1  UNL1       -0.1096
     11 C          23.1622   42.7538   28.5038 C.ar    1  UNL1       -0.0169
     12 C          23.1161   44.0185   28.9916 C.ar    1  UNL1        0.0337
     13 S          24.7838   44.4864   29.0555 S.2     1  UNL1       -0.0819
     14 C          26.8762   42.6710   28.2254 C.2     1  UNL1        0.3456
     15 O          27.5484   42.2311   29.1397 O.2     1  UNL1       -0.2444
     16 C          27.7819   44.2045   26.6622 C.3     1  UNL1        0.2560
     17 O          27.4322   42.8634   27.0106 O.3     1  UNL1       -0.4410
     18 C          19.7504   38.8213   29.5318 C.3     1  UNL1        0.2690
     19 O          19.3333   38.0561   30.6644 O.3     1  UNL1       -0.4664
     20 C          18.8988   38.7482   31.7505 C.ar    1  UNL1        0.1505
     21 C          19.7959   39.1241   32.7392 C.ar    1  UNL1        0.0492
     22 C          19.3512   39.8276   33.8433 C.ar    1  UNL1        0.0607
     23 C          18.0132   40.1614   33.9596 C.ar    1  UNL1        0.0125
     24 C          17.1164   39.7833   32.9780 C.ar    1  UNL1        0.0153
     25 C          17.5562   39.0797   31.8721 C.ar    1  UNL1        0.0916
     26 CL         16.4303   38.6105   30.6368 Cl      1  UNL1       -0.0791
     27 CL         20.4735   40.2989   35.0810 Cl      1  UNL1       -0.0821
@<TRIPOS>UNITY_ATOM_ATTR
8 1
charge -1
@<TRIPOS>BOND
     1    16    17    1
     2    17    14    1
     3    14    15    2
     4    14     9    1
     5     9    13   ar
     6     9    10   ar
     7    10    11   ar
     8    10     8    1
     9    11    12   ar
    10    12    13   ar
    11     8     6    1
    12     6     7    2
    13     6     1    1
    14     1     5   ar
    15     1     2   ar
    16     2     3   ar
    17     3     4   ar
    18     4     5   ar
    19     4    18    1
    20    18    19    1
    21    19    20    1
    22    20    25   ar
    23    20    21   ar
    24    21    22   ar
    25    22    23   ar
    26    22    27    1
    27    23    24   ar
    28    24    25   ar
    29    25    26    1
@<TRIPOS>MOLECULE
ZINC22180599
 29 32 0 0 0
SMALL
GASTEIGER

@<TRIPOS>ATOM
      1 S          22.2335   39.0241   27.6581 S.3     1  UNL1       -0.0766
      2 C          20.9983   38.8569   28.9035 C.ar    1  UNL1        0.1611
      3 N          19.6875   38.7759   28.7756 N.ar    1  UNL1       -0.1331
      4 N          18.8980   38.6412   29.8942 N.ar    1  UNL1       -0.1249
      5 C          19.4539   38.6052   31.0895 C.ar    1  UNL1        0.1866
      6 S          21.1857   38.7511   30.6768 S.2     1  UNL1       -0.0242
      7 N          18.8530   38.4807   32.3371 N.pl3   1  UNL1       -0.2907
      8 H          18.2387   37.7322   32.5152 H       1  UNL1        0.1542
      9 C          19.1211   39.4181   33.3387 C.ar    1  UNL1        0.0604
     10 C          20.3067   39.3476   34.0591 C.ar    1  UNL1        0.0155
     11 C          20.5687   40.2756   35.0477 C.ar    1  UNL1        0.0013
     12 C          19.6527   41.2751   35.3210 C.ar    1  UNL1        0.0009
     13 C          18.4712   41.3491   34.6064 C.ar    1  UNL1        0.0126
     14 C          18.2021   40.4235   33.6159 C.ar    1  UNL1        0.0711
     15 CL         16.7184   40.5165   32.7194 Cl      1  UNL1       -0.0810
     16 C          23.5437   39.9842   28.4656 C.3     1  UNL1        0.1518
     17 C          25.6232   37.3353   29.7223 C.ar    1  UNL1        0.2033
     18 N          24.4484   37.7539   29.1992 N.ar    1  UNL1       -0.1900
     19 C          24.5801   39.0457   29.0281 C.ar    1  UNL1        0.2480
     20 O          25.8041   39.3763   29.4513 O.2     1  UNL1       -0.3361
     21 N          26.3884   38.3890   29.8450 N.ar    1  UNL1       -0.0560
     22 C          26.6341   33.3438   30.7890 C.ar    1  UNL1        0.1387
     23 C          27.1035   33.8831   29.5984 C.ar    1  UNL1        0.0370
     24 C          26.7775   35.1765   29.2502 C.ar    1  UNL1        0.0063
     25 C          25.9754   35.9431   30.0941 C.ar    1  UNL1        0.0393
     26 C          25.5096   35.4008   31.2909 C.ar    1  UNL1        0.0063
     27 C          25.8349   34.1050   31.6316 C.ar    1  UNL1        0.0370
     28 C          27.2823   31.1751   30.0637 C.3     1  UNL1        0.2525
     29 O          26.9577   32.0694   31.1299 O.3     1  UNL1       -0.4714
@<TRIPOS>BOND
     1    28    29    1
     2    29    22    1
     3    22    27   ar
     4    22    23   ar
     5    23    24   ar
     6    24    25   ar
     7    25    26   ar
     8    25    17    1
     9    26    27   ar
    10    17    21   ar
    11    17    18   ar
    12    18    19   ar
    13    19    20   ar
    14    19    16    1
    15    20    21   ar
    16    16     1    1
    17     1     2    1
    18     2     6   ar
    19     2     3   ar
    20     3     4   ar
    21     4     5   ar
    22     5     6   ar
    23     5     7    1
    24     7     9    1
    25     9    14   ar
    26     9    10   ar
    27    10    11   ar
    28    11    12   ar
    29    12    13   ar
    30    13    14   ar
    31    14    15    1
    32     7     8    1
@<TRIPOS>MOLECULE
ZINC12536627
 29 32 0 0 0
SMALL
GASTEIGER

@<TRIPOS>ATOM
      1 C          22.3432   39.8963   28.0117 C.ar    1  UNL1        0.1976
      2 N          21.3721   40.7083   28.3626 N.ar    1  UNL1       -0.1217
      3 N          21.8294   41.8958   28.5410 N.ar    1  UNL1       -0.1274
      4 C          23.1258   41.9166   28.3207 C.ar    1  UNL1        0.1768
      5 N          23.4967   40.6335   27.9778 N.ar    1  UNL1       -0.2656
      6 C          24.7848   40.1797   27.6560 C.ar    1  UNL1        0.1011
      7 C          25.6555   39.7876   28.6620 C.ar    1  UNL1        0.0207
      8 C          26.9256   39.3465   28.3431 C.ar    1  UNL1        0.0017
      9 C          27.3282   39.2846   27.0215 C.ar    1  UNL1        0.0032
     10 C          26.4661   39.6736   26.0136 C.ar    1  UNL1        0.0384
     11 C          25.1926   40.1222   26.3256 C.ar    1  UNL1        0.1547
     12 O          24.3432   40.5047   25.3353 O.3     1  UNL1       -0.4700
     13 C          23.8465   39.4782   24.4741 C.3     1  UNL1        0.2525
     14 C          24.0123   43.0867   28.4214 C.ar    1  UNL1        0.0657
     15 C          24.0788   44.0388   29.4073 C.ar    1  UNL1        0.0101
     16 C          25.0038   45.0514   29.2863 C.ar    1  UNL1        0.0076
     17 C          25.8109   45.0842   28.1944 C.ar    1  UNL1        0.0355
     18 S          25.2762   43.6415   27.2891 S.2     1  UNL1       -0.0833
     19 S          22.1908   38.1774   27.6552 S.3     1  UNL1       -0.0667
     20 C          21.9472   37.5300   29.3279 C.3     1  UNL1        0.1336
     21 C          23.1055   37.9777   30.2217 C.3     1  UNL1        0.0221
     22 C          19.1636   38.9108   31.1261 C.ar    1  UNL1        0.1801
     23 N          20.4693   38.5936   31.0683 N.ar    1  UNL1       -0.1942
     24 C          20.6499   38.0558   29.8860 C.ar    1  UNL1        0.2464
     25 O          19.4648   38.0685   29.2685 O.2     1  UNL1       -0.3365
     26 N          18.6267   38.5565   29.9970 N.ar    1  UNL1       -0.0606
     27 C          16.9608   39.2310   32.2189 C.3     1  UNL1        0.0081
     28 C          18.4537   39.5588   32.2869 C.3     1  UNL1        0.0621
     29 C          19.0332   39.0280   33.5997 C.3     1  UNL1        0.0081
@<TRIPOS>BOND
     1    27    28    1
     2    28    29    1
     3    28    22    1
     4    22    26   ar
     5    22    23   ar
     6    23    24   ar
     7    24    25   ar
     8    24    20    1
     9    25    26   ar
    10    20    21    1
    11    20    19    1
    12    19     1    1
    13     1     5   ar
    14     1     2   ar
    15     2     3   ar
    16     3     4   ar
    17     4     5   ar
    18     4    14    1
    19     5     6    1
    20     6    11   ar
    21     6     7   ar
    22     7     8   ar
    23     8     9   ar
    24     9    10   ar
    25    10    11   ar
    26    11    12    1
    27    12    13    1
    28    14    18   ar
    29    14    15   ar
    30    15    16   ar
    31    16    17   ar
    32    17    18   ar
@<TRIPOS>MOLECULE
ZINC23618678
 30 33 0 0 0
SMALL
GASTEIGER

@<TRIPOS>ATOM
      1 C          22.8952   39.5037   28.1902 C.ar    1  UNL1        0.1074
      2 C          21.6378   40.0177   28.5531 C.ar    1  UNL1        0.1284
      3 N          21.4727   41.3139   28.7401 N.ar    1  UNL1       -0.2360
      4 C          22.5117   42.1432   28.5828 C.ar    1  UNL1        0.0994
      5 C          22.3676   43.5279   28.7743 C.ar    1  UNL1        0.0207
      6 C          23.4414   44.3479   28.6070 C.ar    1  UNL1        0.0016
      7 C          24.6856   43.8341   28.2476 C.ar    1  UNL1        0.0016
      8 C          24.8621   42.4982   28.0540 C.ar    1  UNL1        0.0206
      9 C          23.7770   41.6208   28.2175 C.ar    1  UNL1        0.0986
     10 N          23.9227   40.3022   28.0327 N.ar    1  UNL1       -0.2445
     11 C          23.0632   38.0207   27.9809 C.3     1  UNL1        0.2312
     12 C          23.8486   37.4374   29.1272 C.2     1  UNL1        0.3370
     13 O          23.2943   37.1773   30.1688 O.2     1  UNL1       -0.2485
     14 C          26.0611   38.0044   29.8078 C.3     1  UNL1        0.2556
     15 O          25.1639   37.2068   28.9909 O.3     1  UNL1       -0.4434
     16 C          23.7844   37.7818   26.7201 C.1     1  UNL1        0.0898
     17 N          24.3411   37.5974   25.7471 N.1     1  UNL1       -0.1949
     18 S          20.2722   38.9235   28.7594 S.3     1  UNL1       -0.0299
     19 C          19.9990   39.0983   30.4913 C.ar    1  UNL1        0.1808
     20 N          20.9406   39.2336   31.3920 N.ar    1  UNL1       -0.2207
     21 C          20.3803   39.3454   32.6245 C.ar    1  UNL1        0.0993
     22 C          20.9087   39.5078   33.9079 C.ar    1  UNL1        0.0206
     23 C          20.0623   39.5855   34.9909 C.ar    1  UNL1        0.0016
     24 C          18.6884   39.5034   34.8181 C.ar    1  UNL1        0.0016
     25 C          18.1509   39.3434   33.5575 C.ar    1  UNL1        0.0189
     26 C          18.9882   39.2632   32.4552 C.ar    1  UNL1        0.0840
     27 N          18.7740   39.1071   31.0959 N.ar    1  UNL1       -0.2514
     28 C          17.4755   38.9758   30.4304 C.3     1  UNL1        0.4155
     29 F          17.0843   37.6326   30.4321 F       1  UNL1       -0.1725
     30 F          16.5225   39.7399   31.1124 F       1  UNL1       -0.1725
@<TRIPOS>BOND
     1    14    15    1
     2    15    12    1
     3    12    13    2
     4    12    11    1
     5    11    16    1
     6    11     1    1
     7    16    17    3
     8     1    10   ar
     9     1     2   ar
    10     2     3   ar
    11     2    18    1
    12     3     4   ar
    13     4     9   ar
    14     4     5   ar
    15     5     6   ar
    16     6     7   ar
    17     7     8   ar
    18     8     9   ar
    19     9    10   ar
    20    18    19    1
    21    19    27   ar
    22    19    20   ar
    23    20    21   ar
    24    21    26   ar
    25    21    22   ar
    26    22    23   ar
    27    23    24   ar
    28    24    25   ar
    29    25    26   ar
    30    26    27   ar
    31    27    28    1
    32    28    29    1
    33    28    30    1
@<TRIPOS>MOLECULE
ZINC09037171
 31 34 0 0 0
SMALL
GASTEIGER

@<TRIPOS>ATOM
      1 N          22.4421   38.8620   29.2981 N.am    1  UNL1       -0.2292
      2 C          23.4703   38.2397   29.9078 C.2     1  UNL1        0.2545
      3 O          23.2982   37.6849   30.9751 O.2     1  UNL1       -0.2695
      4 C          19.1772   39.7029   32.8747 C.ar    1  UNL1       -0.0043
      5 C          17.8459   39.6364   33.1938 C.ar    1  UNL1       -0.0028
      6 C          16.9041   39.1798   32.2835 C.ar    1  UNL1        0.0003
      7 C          17.3162   38.7823   31.0244 C.ar    1  UNL1        0.0081
      8 C          18.6470   38.8455   30.6959 C.ar    1  UNL1        0.0494
      9 C          19.6346   39.3052   31.5974 C.ar    1  UNL1        0.0852
     10 N          20.9002   39.3089   31.1263 N.ar    1  UNL1       -0.2240
     11 C          21.2022   38.9131   29.9115 C.ar    1  UNL1        0.1693
     12 S          19.6043   38.4641   29.2485 S.2     1  UNL1       -0.0512
     13 C          19.7549   41.6071   34.3543 C.3     1  UNL1        0.0047
     14 C          20.1642   40.2058   33.8964 C.3     1  UNL1        0.0238
     15 C          20.1795   39.2604   35.0993 C.3     1  UNL1        0.0047
     16 C          24.8093   38.2318   29.2773 C.ar    1  UNL1        0.0540
     17 C          25.7563   39.1915   29.6393 C.ar    1  UNL1        0.0046
     18 C          27.0049   39.1817   29.0572 C.ar    1  UNL1        0.0030
     19 C          27.3198   38.2168   28.0957 C.ar    1  UNL1        0.0347
     20 C          26.3685   37.2597   27.7298 C.ar    1  UNL1        0.0030
     21 C          25.1225   37.2682   28.3169 C.ar    1  UNL1        0.0046
     22 C          28.6534   38.2084   27.4685 C.2     1  UNL1        0.1735
     23 O          28.8104   37.6881   26.3848 O.2     1  UNL1       -0.2913
     24 C          29.8222   38.8466   28.1742 C.3     1  UNL1        0.0773
     25 C          22.6365   39.4847   27.9864 C.3     1  UNL1        0.1460
     26 C          22.8424   40.9674   28.1596 C.ar    1  UNL1        0.0795
     27 C          24.0821   41.5201   27.8981 C.ar    1  UNL1        0.0165
     28 C          24.2609   42.8852   28.0602 C.ar    1  UNL1        0.0029
     29 C          23.1813   43.6468   28.4811 C.ar    1  UNL1        0.0207
     30 C          21.9732   43.0234   28.7288 C.ar    1  UNL1        0.0985
     31 N          21.8379   41.7226   28.5585 N.ar    1  UNL1       -0.2464
@<TRIPOS>BOND
     1    13    14    1
     2    14    15    1
     3    14     4    1
     4     4     9   ar
     5     4     5   ar
     6     5     6   ar
     7     6     7   ar
     8     7     8   ar
     9     8    12   ar
    10     8     9   ar
    11     9    10   ar
    12    10    11   ar
    13    11    12   ar
    14    11     1    1
    15     1    25    1
    16     1     2   am
    17    25    26    1
    18    26    31   ar
    19    26    27   ar
    20    27    28   ar
    21    28    29   ar
    22    29    30   ar
    23    30    31   ar
    24     2     3    2
    25     2    16    1
    26    16    21   ar
    27    16    17   ar
    28    17    18   ar
    29    18    19   ar
    30    19    20   ar
    31    19    22    1
    32    20    21   ar
    33    22    23    2
    34    22    24    1
@<TRIPOS>MOLECULE
ZINC23611976
 32 35 0 0 0
SMALL
GASTEIGER

@<TRIPOS>ATOM
      1 N          26.9804   38.8730   27.4476 N.ar    1  UNL1       -0.1773
      2 C          26.7277   39.5299   26.2969 C.ar    1  UNL1        0.1852
      3 S          27.8448   39.8203   25.0325 S.2     1  UNL1       -0.0110
      4 N          25.4365   39.9159   26.3222 N.ar    1  UNL1       -0.2870
      5 C          24.8802   39.4893   27.5119 C.ar    1  UNL1        0.1652
      6 N          25.7969   38.8667   28.1983 N.ar    1  UNL1       -0.1452
      7 C          23.4803   39.7079   27.9387 C.ar    1  UNL1        0.0375
      8 C          23.0018   41.0038   28.1346 C.ar    1  UNL1        0.0031
      9 C          21.6943   41.2011   28.5279 C.ar    1  UNL1        0.0018
     10 C          20.8611   40.1167   28.7388 C.ar    1  UNL1        0.0241
     11 C          21.3293   38.8295   28.5458 C.ar    1  UNL1        0.1430
     12 C          22.6336   38.6190   28.1474 C.ar    1  UNL1        0.0271
     13 N          20.4296   37.6753   28.7676 N.pl3   1  UNL1        0.0577
     14 O          20.4626   36.7228   28.0093 O.2     1  UNL1       -0.1261
     15 O          19.6561   37.6780   29.7085 O.2     1  UNL1       -0.1261
     16 C          28.2598   38.2785   27.8424 C.3     1  UNL1        0.2435
     17 C          29.3631   37.0916   29.6416 C.3     1  UNL1        0.1695
     18 N          28.0709   37.4703   29.0546 N.4     1  UNL1        0.2986
     19 H          27.5717   38.0409   29.7370 H       1  UNL1        0.2093
     20 C          27.2523   36.2833   28.7736 C.3     1  UNL1        0.0802
     21 C          28.1403   35.1854   28.1915 C.3     1  UNL1        0.0602
     22 C          27.3200   33.8925   28.1090 C.3     1  UNL1        0.0109
     23 C          27.0739   33.3871   29.5291 C.3     1  UNL1        0.0265
     24 C          26.5115   34.4862   30.3920 C.ar    1  UNL1       -0.0209
     25 C          26.5998   35.8168   30.0486 C.ar    1  UNL1        0.0227
     26 C          26.0725   36.7822   30.8961 C.ar    1  UNL1        0.0009
     27 C          25.4575   36.4186   32.0766 C.ar    1  UNL1       -0.0001
     28 C          25.3645   35.0827   32.4189 C.ar    1  UNL1       -0.0003
     29 C          25.8897   34.1221   31.5791 C.ar    1  UNL1       -0.0044
     30 C          24.7425   40.6607   25.2686 C.3     1  UNL1        0.1359
     31 C          24.0306   39.6952   24.3565 C.2     1  UNL1       -0.0017
     32 C          23.7478   40.0439   23.1259 C.2     1  UNL1       -0.0029
@<TRIPOS>UNITY_ATOM_ATTR
18 1
charge 1
@<TRIPOS>BOND
     1    17    18    1
     2    18    16    1
     3    18    20    1
     4    16     1    1
     5     1     6   ar
     6     1     2   ar
     7     2     3    2
     8     2     4   ar
     9     4     5   ar
    10     4    30    1
    11     5     6   ar
    12     5     7    1
    13     7    12   ar
    14     7     8   ar
    15     8     9   ar
    16     9    10   ar
    17    10    11   ar
    18    11    12   ar
    19    11    13    1
    20    13    14    2
    21    13    15    2
    22    30    31    1
    23    31    32    2
    24    20    25    1
    25    20    21    1
    26    21    22    1
    27    22    23    1
    28    23    24    1
    29    24    29   ar
    30    24    25   ar
    31    25    26   ar
    32    26    27   ar
    33    27    28   ar
    34    28    29   ar
    35    18    19    1
@<TRIPOS>MOLECULE
ZINC14231759
 29 31 0 0 0
SMALL
GASTEIGER

@<TRIPOS>ATOM
      1 C          11.1552   37.3757   26.5834 C.ar    1  UNL1       -0.0046
      2 C          10.7646   36.5474   25.5188 C.ar    1  UNL1        0.0169
      3 C          10.1042   37.3117   24.6193 C.ar    1  UNL1        0.0951
      4 N          10.0754   38.5755   25.0918 N.ar    1  UNL1       -0.2465
      5 N          10.7357   38.5923   26.3271 N.ar    1  UNL1       -0.1929
      6 N          11.8633   36.9727   27.7218 N.pl3   1  UNL1       -0.5191
      7 S          13.5178   37.0408   27.7351 S.O2    1  UNL1       -0.0568
      8 O          13.8990   37.8666   26.6433 O.2     1  UNL1       -0.1841
      9 O          13.9783   35.7040   27.8762 O.2     1  UNL1       -0.1841
     10 C          14.7365   39.2343   31.5026 C.ar    1  UNL1       -0.0221
     11 C          15.6199   39.1353   30.4440 C.ar    1  UNL1       -0.0030
     12 C          15.2478   38.4654   29.2936 C.ar    1  UNL1        0.0166
     13 C          13.9923   37.8943   29.2017 C.ar    1  UNL1        0.0893
     14 C          13.1092   37.9924   30.2607 C.ar    1  UNL1        0.0166
     15 C          13.4815   38.6620   31.4114 C.ar    1  UNL1       -0.0030
     16 C          15.1423   39.9643   32.7571 C.3     1  UNL1        0.0264
     17 C          17.2040   40.7107   33.9548 C.3     1  UNL1        0.0004
     18 C          16.5794   39.5882   33.1236 C.3     1  UNL1        0.0047
     19 C           9.4564   39.7273   24.4313 C.3     1  UNL1        0.1584
     20 C          10.5122   40.5124   23.6965 C.ar    1  UNL1        0.0615
     21 C          11.0789   41.6293   24.2851 C.ar    1  UNL1        0.1676
     22 C          12.0533   42.3491   23.6108 C.ar    1  UNL1        0.1695
     23 C          12.4524   41.9560   22.3453 C.ar    1  UNL1        0.0639
     24 C          11.8819   40.8422   21.7546 C.ar    1  UNL1        0.1695
     25 C          10.9109   40.1196   22.4308 C.ar    1  UNL1        0.1676
     26 F          10.3543   39.0319   21.8544 F       1  UNL1       -0.2020
     27 F          12.2714   40.4585   20.5192 F       1  UNL1       -0.2017
     28 F          12.6103   43.4364   24.1875 F       1  UNL1       -0.2017
     29 F          10.6856   42.0159   25.5184 F       1  UNL1       -0.2020
@<TRIPOS>UNITY_ATOM_ATTR
6 1
charge -1
@<TRIPOS>BOND
     1    17    18    1
     2    18    16    1
     3    16    10    1
     4    10    15   ar
     5    10    11   ar
     6    11    12   ar
     7    12    13   ar
     8    13    14   ar
     9    13     7    1
    10    14    15   ar
    11     7     8    2
    12     7     9    2
    13     7     6    1
    14     6     1    1
    15     1     5   ar
    16     1     2   ar
    17     2     3   ar
    18     3     4   ar
    19     4     5   ar
    20     4    19    1
    21    19    20    1
    22    20    25   ar
    23    20    21   ar
    24    21    22   ar
    25    21    29    1
    26    22    23   ar
    27    22    28    1
    28    23    24   ar
    29    24    25   ar
    30    24    27    1
    31    25    26    1
@<TRIPOS>MOLECULE
ZINC26284400
 29 31 0 0 0
SMALL
GASTEIGER

@<TRIPOS>ATOM
      1 C          23.2614   39.0535   28.3392 C.2     1  UNL1        0.0117
      2 C          21.9856   38.6364   28.0137 C.2     1  UNL1        0.0709
      3 C          26.7014   38.3677   24.7042 C.3     1  UNL1        0.0500
      4 C          25.9036   38.2697   25.9788 C.ar    1  UNL1        0.0372
      5 C          24.8100   38.9934   26.2696 C.ar    1  UNL1        0.0139
      6 C          24.3748   38.5676   27.6072 C.ar    1  UNL1        0.0134
      7 C          25.2723   37.5896   28.0033 C.ar    1  UNL1        0.0371
      8 N          26.1752   37.4275   27.0186 N.ar    1  UNL1       -0.3333
      9 C          25.2425   36.8378   29.3090 C.3     1  UNL1        0.0500
     10 C          27.2922   36.4805   27.0569 C.3     1  UNL1        0.1145
     11 C          28.5929   37.2122   26.7199 C.3     1  UNL1        0.0271
     12 C          27.0531   35.3680   26.0341 C.3     1  UNL1        0.1646
     13 O          27.7877   34.2035   26.4165 O.3     1  UNL1       -0.3491
     14 C          27.0417   33.2814   27.2135 C.3     1  UNL1        0.1742
     15 C          20.8493   39.0172   28.8631 C.2     1  UNL1        0.0091
     16 O          20.5437   40.1889   28.9810 O.co2   1  UNL1       -0.8592
     17 N          20.1453   38.0686   29.5120 N.2     1  UNL1       -0.2367
     18 C          19.0747   38.4275   30.3123 C.ar    1  UNL1        0.1931
     19 N          17.8007   38.4946   30.0021 N.ar    1  UNL1       -0.2205
     20 C          16.8554   38.8648   30.8929 C.ar    1  UNL1        0.0903
     21 C          15.4604   38.9769   30.6895 C.ar    1  UNL1        0.0311
     22 C          14.6335   39.3744   31.7087 C.ar    1  UNL1        0.0592
     23 C          15.1297   39.6700   32.9713 C.ar    1  UNL1        0.0120
     24 C          16.4889   39.5706   33.2048 C.ar    1  UNL1        0.0089
     25 C          17.3243   39.1780   32.1890 C.ar    1  UNL1        0.0500
     26 S          19.0749   38.9187   32.0308 S.2     1  UNL1       -0.0472
     27 CL         12.9276   39.5061   31.4151 Cl      1  UNL1       -0.0822
     28 C          21.7705   37.8327   26.8482 C.1     1  UNL1        0.1007
     29 N          21.6000   37.1952   25.9236 N.1     1  UNL1       -0.1908
@<TRIPOS>UNITY_ATOM_ATTR
16 1
charge -1
@<TRIPOS>BOND
     1     3     4    1
     2     4     8   ar
     3     4     5   ar
     4     5     6   ar
     5     6     7   ar
     6     6     1    1
     7     7     8   ar
     8     7     9    1
     9     8    10    1
    10    10    11    1
    11    10    12    1
    12    12    13    1
    13    13    14    1
    14     1     2    2
    15     2    28    1
    16     2    15    1
    17    28    29    3
    18    15    16    1
    19    15    17    2
    20    17    18    1
    21    18    26   ar
    22    18    19   ar
    23    19    20   ar
    24    20    25   ar
    25    20    21   ar
    26    21    22   ar
    27    22    23   ar
    28    22    27    1
    29    23    24   ar
    30    24    25   ar
    31    25    26   ar
@<TRIPOS>MOLECULE
ZINC21766624
 31 33 0 0 0
SMALL
GASTEIGER

@<TRIPOS>ATOM
      1 C          27.2127   36.6005   28.3660 C.2     1  UNL1        0.0110
      2 C          26.1755   37.4757   28.3528 C.ar    1  UNL1        0.0869
      3 C          24.8532   37.3742   29.0037 C.ar    1  UNL1        0.2673
      4 O          24.5330   36.4115   29.6757 O.2     1  UNL1       -0.2664
      5 N          24.0397   38.4001   28.8071 N.ar    1  UNL1       -0.2866
      6 C          24.4300   39.4669   28.0465 C.ar    1  UNL1        0.1057
      7 C          23.6978   40.6214   27.7422 C.2     1  UNL1        0.1292
      8 S          26.0370   39.0590   27.5384 S.2     1  UNL1       -0.0641
      9 C          27.0330   31.9856   31.7864 C.3     1  UNL1        0.0310
     10 C          27.0802   33.1957   30.8894 C.ar    1  UNL1       -0.0222
     11 C          27.1924   34.4593   31.4437 C.ar    1  UNL1       -0.0043
     12 C          27.2362   35.5714   30.6305 C.ar    1  UNL1       -0.0006
     13 C          27.1673   35.4203   29.2406 C.ar    1  UNL1       -0.0033
     14 C          27.0491   34.1398   28.6888 C.ar    1  UNL1       -0.0221
     15 C          27.0115   33.0375   29.5162 C.ar    1  UNL1       -0.0085
     16 C          26.9684   33.9657   27.1940 C.3     1  UNL1        0.0310
     17 C          22.3286   40.7286   28.1481 C.1     1  UNL1        0.1057
     18 N          21.2426   40.8136   28.4699 N.1     1  UNL1       -0.1907
     19 C          24.3116   41.6833   27.0332 C.2     1  UNL1        0.2067
     20 O          24.6276   41.5340   25.8662 O.2     1  UNL1       -0.2858
     21 C          24.5688   42.9735   27.7099 C.ar    1  UNL1        0.0358
     22 C          23.5231   43.8728   27.9250 C.ar    1  UNL1        0.0029
     23 C          23.7708   45.0769   28.5506 C.ar    1  UNL1        0.0001
     24 C          25.0523   45.3936   28.9659 C.ar    1  UNL1       -0.0003
     25 C          26.0929   44.5066   28.7561 C.ar    1  UNL1       -0.0042
     26 C          25.8588   43.2992   28.1306 C.ar    1  UNL1       -0.0187
     27 C          26.9936   42.3341   27.9029 C.3     1  UNL1        0.0311
     28 C          22.7055   38.3921   29.4121 C.3     1  UNL1        0.1415
     29 C          21.8453   37.3226   28.7361 C.3     1  UNL1        0.1668
     30 O          20.4667   37.5720   29.0176 O.3     1  UNL1       -0.3490
     31 C          20.2395   38.2485   30.2557 C.3     1  UNL1        0.1742
@<TRIPOS>BOND
     1     9    10    1
     2    10    15   ar
     3    10    11   ar
     4    11    12   ar
     5    12    13   ar
     6    13    14   ar
     7    13     1    1
     8    14    15   ar
     9    14    16    1
    10     1     2    2
    11     2     8   ar
    12     2     3   ar
    13     3     4    2
    14     3     5   ar
    15     5     6   ar
    16     5    28    1
    17     6     7    2
    18     6     8   ar
    19     7    17    1
    20     7    19    1
    21    17    18    3
    22    19    20    2
    23    19    21    1
    24    21    26   ar
    25    21    22   ar
    26    22    23   ar
    27    23    24   ar
    28    24    25   ar
    29    25    26   ar
    30    26    27    1
    31    28    29    1
    32    29    30    1
    33    30    31    1
@<TRIPOS>MOLECULE
ZINC21274907
 31 34 0 0 0
SMALL
GASTEIGER

@<TRIPOS>ATOM
      1 C          23.6326   39.5917   27.9066 C.ar    1  UNL1        0.1348
      2 C          23.7392   41.0090   27.9598 C.ar    1  UNL1        0.0517
      3 C          24.8702   41.8677   27.6545 C.ar    1  UNL1       -0.0151
      4 C          24.7359   43.1963   27.7788 C.ar    1  UNL1        0.0052
      5 S          23.0504   43.3953   28.3249 S.2     1  UNL1       -0.0725
      6 C          22.5720   41.6885   28.3711 C.ar    1  UNL1        0.1143
      7 N          21.4691   41.0354   28.6805 N.ar    1  UNL1       -0.2187
      8 C          21.4317   39.7191   28.6117 C.ar    1  UNL1        0.1969
      9 N          22.4879   39.0180   28.2394 N.ar    1  UNL1       -0.2104
     10 C          25.7648   44.2664   27.5186 C.3     1  UNL1        0.0379
     11 C          26.1791   41.2727   27.2028 C.3     1  UNL1        0.0314
     12 C          26.1468   36.4002   26.8692 C.3     1  UNL1        0.1025
     13 C          26.3901   37.1613   28.1754 C.3     1  UNL1        0.0326
     14 C          25.1074   37.8903   28.5819 C.3     1  UNL1        0.0927
     15 N          24.7142   38.8223   27.5173 N.pl3   1  UNL1       -0.2931
     16 C          24.4294   38.1090   26.2657 C.3     1  UNL1        0.0927
     17 C          25.6918   37.3865   25.7900 C.3     1  UNL1        0.0326
     18 C          27.4229   35.7276   26.4329 C.2     1  UNL1        0.3165
     19 O          28.4172   36.3862   26.2394 O.2     1  UNL1       -0.2501
     20 O          27.4548   34.3971   26.2592 O.3     1  UNL1       -0.4485
     21 C          27.1689   32.0999   27.0153 C.3     1  UNL1        0.0513
     22 C          27.1924   33.5736   27.4260 C.3     1  UNL1        0.2086
     23 C          20.1581   38.9981   28.9714 C.3     1  UNL1        0.1720
     24 N          19.7858   39.3223   30.3550 N.4     1  UNL1        0.2817
     25 C          18.5339   38.6545   30.7333 C.3     1  UNL1        0.1058
     26 C          18.1018   39.1275   32.1231 C.3     1  UNL1        0.0611
     27 C          19.2034   38.7986   33.1344 C.3     1  UNL1        0.0118
     28 C          20.5081   39.4663   32.6912 C.3     1  UNL1        0.0611
     29 C          20.8706   38.9833   31.2850 C.3     1  UNL1        0.1058
     30 C          18.8036   39.3234   34.5148 C.3     1  UNL1        0.0004
     31 H          19.6308   40.3289   30.4115 H       1  UNL1        0.2072
@<TRIPOS>UNITY_ATOM_ATTR
24 1
charge 1
@<TRIPOS>BOND
     1    21    22    1
     2    22    20    1
     3    20    18    1
     4    18    19    2
     5    18    12    1
     6    12    17    1
     7    12    13    1
     8    13    14    1
     9    14    15    1
    10    15    16    1
    11    15     1    1
    12    16    17    1
    13     1     9   ar
    14     1     2   ar
    15     2     6   ar
    16     2     3   ar
    17     3     4   ar
    18     3    11    1
    19     4     5   ar
    20     4    10    1
    21     5     6   ar
    22     6     7   ar
    23     7     8   ar
    24     8     9   ar
    25     8    23    1
    26    23    24    1
    27    24    29    1
    28    24    25    1
    29    25    26    1
    30    26    27    1
    31    27    28    1
    32    27    30    1
    33    28    29    1
    34    24    31    1
@<TRIPOS>MOLECULE
ZINC18251850
 29 33 0 0 0
SMALL
GASTEIGER

@<TRIPOS>ATOM
      1 C          22.7731   37.9648   28.2123 C.ar    1  UNL1        0.0995
      2 C          22.8014   37.2258   29.4016 C.ar    1  UNL1        0.0101
      3 C          23.9100   37.3409   30.2204 C.ar    1  UNL1        0.0209
      4 C          24.9459   38.1818   29.8515 C.ar    1  UNL1        0.0994
      5 N          24.9010   38.8693   28.7278 N.ar    1  UNL1       -0.2371
      6 C          23.8663   38.7932   27.9042 C.ar    1  UNL1        0.1183
      7 C          21.6192   37.8758   27.3012 C.2     1  UNL1        0.3436
      8 O          21.6695   37.1525   26.3259 O.2     1  UNL1       -0.2448
      9 O          20.5078   38.5965   27.5491 O.3     1  UNL1       -0.4386
     10 C          20.5971   39.6105   28.5845 C.3     1  UNL1        0.2576
     11 C          19.2184   38.8246   33.4207 C.3     1  UNL1        0.0754
     12 C          19.3629   38.7807   31.9213 C.ar    1  UNL1        0.1546
     13 C          20.1979   39.5323   31.1647 C.ar    1  UNL1        0.0573
     14 C          19.9402   39.1032   29.8425 C.ar    1  UNL1        0.1441
     15 N          19.0192   38.1872   29.9264 N.ar    1  UNL1       -0.0780
     16 O          18.6901   37.9903   31.0731 O.2     1  UNL1       -0.3580
     17 S          23.8604   39.7346   26.4149 S.3     1  UNL1       -0.0487
     18 C          25.4300   40.5247   26.5460 C.ar    1  UNL1        0.1154
     19 C          25.5526   41.7830   27.1966 C.ar    1  UNL1        0.0440
     20 C          24.4982   42.5953   27.8250 C.ar    1  UNL1       -0.0162
     21 C          24.8771   43.7584   28.3789 C.ar    1  UNL1        0.0048
     22 S          26.6316   43.8525   28.1040 S.2     1  UNL1       -0.0726
     23 C          26.8524   42.3195   27.2431 C.ar    1  UNL1        0.1138
     24 N          27.8798   41.6841   26.7126 N.ar    1  UNL1       -0.2173
     25 C          27.7056   40.5182   26.1205 C.ar    1  UNL1        0.1998
     26 N          26.5141   39.9531   26.0451 N.ar    1  UNL1       -0.2173
     27 C          23.7197   44.4993   28.9932 C.3     1  UNL1        0.0330
     28 C          22.6081   43.4358   29.1313 C.3     1  UNL1        0.0099
     29 C          22.9865   42.4414   28.0161 C.3     1  UNL1        0.0270
@<TRIPOS>BOND
     1    11    12    1
     2    12    16   ar
     3    12    13   ar
     4    13    14   ar
     5    14    15   ar
     6    14    10    1
     7    15    16   ar
     8    10     9    1
     9     9     7    1
    10     7     8    2
    11     7     1    1
    12     1     6   ar
    13     1     2   ar
    14     2     3   ar
    15     3     4   ar
    16     4     5   ar
    17     5     6   ar
    18     6    17    1
    19    17    18    1
    20    18    26   ar
    21    18    19   ar
    22    19    23   ar
    23    19    20   ar
    24    20    29    1
    25    20    21   ar
    26    21    22   ar
    27    21    27    1
    28    22    23   ar
    29    23    24   ar
    30    24    25   ar
    31    25    26   ar
    32    27    28    1
    33    28    29    1
@<TRIPOS>MOLECULE
ZINC17183062
 31 34 0 0 0
SMALL
GASTEIGER

@<TRIPOS>ATOM
      1 C          14.1186   38.7231   30.7175 C.ar    1  UNL1        0.1725
      2 N          13.5271   38.1393   29.6937 N.ar    1  UNL1       -0.2241
      3 C          12.2236   37.9423   29.6790 C.ar    1  UNL1        0.1112
      4 C          11.4950   38.3602   30.7432 C.ar    1  UNL1        0.0566
      5 S          12.7813   39.0440   31.7779 S.2     1  UNL1       -0.0505
      6 N          15.4678   39.0092   30.9010 N.am    1  UNL1       -0.2169
      7 C          16.3742   38.5925   29.9947 C.2     1  UNL1        0.2350
      8 O          16.0064   38.0491   28.9748 O.2     1  UNL1       -0.2741
      9 C          17.8448   38.8020   30.2486 C.3     1  UNL1        0.0956
     10 C          18.6133   39.5787   34.6378 C.3     1  UNL1        0.0311
     11 C          17.4054   40.0280   33.8567 C.ar    1  UNL1       -0.0206
     12 C          16.7062   41.1537   34.2529 C.ar    1  UNL1       -0.0042
     13 C          15.5976   41.5693   33.5389 C.ar    1  UNL1        0.0010
     14 C          15.1844   40.8605   32.4277 C.ar    1  UNL1        0.0153
     15 C          15.8841   39.7300   32.0274 C.ar    1  UNL1        0.0596
     16 C          16.9943   39.3122   32.7497 C.ar    1  UNL1        0.0110
     17 C          11.5581   37.2740   28.5037 C.3     1  UNL1        0.2548
     18 O          11.1155   38.2842   27.5593 O.3     1  UNL1       -0.4387
     19 C          10.8094   37.8665   26.3153 C.2     1  UNL1        0.3416
     20 O          10.5621   36.6945   26.1117 O.2     1  UNL1       -0.2449
     21 C          10.7747   38.8321   25.2006 C.ar    1  UNL1        0.0758
     22 C          10.5634   40.1900   25.4563 C.ar    1  UNL1        0.0079
     23 C          10.5374   41.0891   24.4137 C.ar    1  UNL1        0.0177
     24 C          10.7090   40.6460   23.1067 C.ar    1  UNL1        0.0641
     25 C          10.9139   39.2950   22.8479 C.ar    1  UNL1        0.0177
     26 C          10.9473   38.3908   23.8857 C.ar    1  UNL1        0.0079
     27 N          10.6762   41.5610   22.0505 N.ar    1  UNL1       -0.3036
     28 C          11.1087   41.3231   20.7763 C.ar    1  UNL1        0.0802
     29 C          10.9103   42.4407   20.0490 C.ar    1  UNL1        0.0205
     30 C          10.3441   43.4079   20.9045 C.ar    1  UNL1        0.0205
     31 C          10.2117   42.8440   22.1218 C.ar    1  UNL1        0.0802
@<TRIPOS>BOND
     1    10    11    1
     2    11    16   ar
     3    11    12   ar
     4    12    13   ar
     5    13    14   ar
     6    14    15   ar
     7    15    16   ar
     8    15     6    1
     9     6     1    1
    10     6     7   am
    11     1     5   ar
    12     1     2   ar
    13     2     3   ar
    14     3     4   ar
    15     3    17    1
    16     4     5   ar
    17    17    18    1
    18    18    19    1
    19    19    20    2
    20    19    21    1
    21    21    26   ar
    22    21    22   ar
    23    22    23   ar
    24    23    24   ar
    25    24    25   ar
    26    24    27    1
    27    25    26   ar
    28    27    31   ar
    29    27    28   ar
    30    28    29   ar
    31    29    30   ar
    32    30    31   ar
    33     7     8    2
    34     7     9    1
@<TRIPOS>MOLECULE
ZINC09635966
 29 31 0 0 0
SMALL
GASTEIGER

@<TRIPOS>ATOM
      1 N          20.0926   39.0720   32.7633 N.pl3   1  UNL1       -0.1716
      2 C          18.7804   39.0524   32.3153 C.ar    1  UNL1        0.1756
      3 C          17.5621   39.2463   32.9588 C.ar    1  UNL1        0.0441
      4 C          16.3935   39.1682   32.2563 C.ar    1  UNL1        0.0102
      5 C          16.4119   38.8930   30.8846 C.ar    1  UNL1        0.0793
      6 C          17.6297   38.6973   30.2291 C.ar    1  UNL1        0.0503
      7 C          18.8120   38.7771   30.9441 C.ar    1  UNL1        0.1758
      8 N          20.1485   38.6384   30.5801 N.pl3   1  UNL1       -0.1716
      9 C          20.9143   38.8159   31.6996 C.2     1  UNL1        0.2798
     10 C          22.2963   38.7525   31.7473 C.2     1  UNL1        0.0844
     11 C          23.0102   38.2858   30.6470 C.2     1  UNL1        0.0184
     12 C          24.0446   37.3796   30.8252 C.2     1  UNL1        0.0852
     13 C          24.8908   36.7819   29.8644 C.2     1  UNL1        0.2595
     14 O          24.7692   37.0406   28.6780 O.2     1  UNL1       -0.2690
     15 N          25.8171   35.9364   30.2808 N.am    1  UNL1       -0.2441
     16 C          25.9526   35.6495   31.5954 C.2     1  UNL1        0.1212
     17 S          27.0680   34.5977   32.3575 S.2     1  UNL1       -0.0272
     18 S          24.6691   36.6499   32.3328 S.3     1  UNL1       -0.0604
     19 C          26.7087   35.3024   29.3062 C.3     1  UNL1        0.0995
     20 C          27.9444   36.1805   29.0991 C.3     1  UNL1        0.0237
     21 C          20.2708   40.7902   34.4945 C.3     1  UNL1        0.0555
     22 C          20.5253   39.3238   34.1401 C.3     1  UNL1        0.2074
     23 C          20.6476   38.3496   29.2334 C.3     1  UNL1        0.2074
     24 C          20.6536   39.6359   28.4049 C.3     1  UNL1        0.0555
     25 C          15.1467   38.8099   30.1314 C.2     1  UNL1        0.3413
     26 O          15.1596   38.5157   28.9526 O.2     1  UNL1       -0.2449
     27 O          13.9763   39.0605   30.7505 O.3     1  UNL1       -0.4454
     28 C          12.9303   38.0631   30.6115 C.3     1  UNL1        0.2089
     29 C          11.6761   38.5330   31.3512 C.3     1  UNL1        0.0513
@<TRIPOS>BOND
     1    21    22    1
     2    22     1    1
     3     1     9    1
     4     1     2    1
     5     2     7   ar
     6     2     3   ar
     7     3     4   ar
     8     4     5   ar
     9     5     6   ar
    10     5    25    1
    11     6     7   ar
    12     7     8    1
    13     8     9    1
    14     8    23    1
    15     9    10    2
    16    10    11    1
    17    11    12    2
    18    12    18    1
    19    12    13    1
    20    13    14    2
    21    13    15   am
    22    15    16    1
    23    15    19    1
    24    16    17    2
    25    16    18    1
    26    19    20    1
    27    23    24    1
    28    25    26    2
    29    25    27    1
    30    27    28    1
    31    28    29    1
@<TRIPOS>MOLECULE
ZINC28860275
 31 34 0 0 0
SMALL
GASTEIGER

@<TRIPOS>ATOM
      1 C          11.4913   36.1654   27.7121 C.3     1  UNL1        0.0575
      2 C          12.0686   37.0434   26.6000 C.3     1  UNL1        0.2446
      3 C          11.0327   38.0474   26.1641 C.2     1  UNL1        0.2663
      4 O          10.8233   39.0340   26.8377 O.2     1  UNL1       -0.2710
      5 N          10.3391   37.8490   25.0258 N.am    1  UNL1       -0.2687
      6 C          10.5920   36.6573   24.2121 C.3     1  UNL1        0.1154
      7 C           9.3321   38.8251   24.6019 C.3     1  UNL1        0.1462
      8 C           9.9938   39.9097   23.7915 C.ar    1  UNL1        0.1083
      9 N          10.2759   39.9102   22.5191 N.ar    1  UNL1       -0.2410
     10 C          10.8745   40.9548   21.9098 C.ar    1  UNL1        0.0875
     11 C          11.2410   41.1039   20.5538 C.ar    1  UNL1        0.0196
     12 C          11.8431   42.2434   20.1183 C.ar    1  UNL1        0.0016
     13 C          12.1196   43.2958   20.9801 C.ar    1  UNL1        0.0006
     14 C          11.7764   43.1888   22.3147 C.ar    1  UNL1        0.0080
     15 C          11.1676   42.0422   22.7640 C.ar    1  UNL1        0.0482
     16 S          10.5568   41.4626   24.3266 S.2     1  UNL1       -0.0691
     17 O          13.2231   37.7307   27.0866 O.3     1  UNL1       -0.4397
     18 C          13.9456   37.1129   28.0442 C.2     1  UNL1        0.3418
     19 O          14.4144   36.0098   27.8359 O.2     1  UNL1       -0.2449
     20 C          14.1584   37.7493   29.2931 C.2     1  UNL1        0.0819
     21 C          15.3522   38.3240   29.5642 C.2     1  UNL1        0.0066
     22 C          15.5726   38.9825   30.8564 C.ar    1  UNL1        0.0002
     23 C          14.5110   39.5519   31.5546 C.ar    1  UNL1        0.0000
     24 C          14.7244   40.1783   32.7737 C.ar    1  UNL1        0.0000
     25 C          15.9639   40.2624   33.3317 C.ar    1  UNL1        0.0000
     26 C          17.0818   39.7108   32.6833 C.ar    1  UNL1        0.0000
     27 C          16.9134   39.0608   31.4364 C.ar    1  UNL1        0.0000
     28 C          18.0239   38.5093   30.7880 C.ar    1  UNL1        0.0000
     29 C          19.2564   38.6044   31.3636 C.ar    1  UNL1        0.0000
     30 C          19.4260   39.2433   32.5895 C.ar    1  UNL1        0.0000
     31 C          18.3668   39.7903   33.2476 C.ar    1  UNL1        0.0000
@<TRIPOS>BOND
     1     1     2    1
     2     2     3    1
     3     2    17    1
     4     3     4    2
     5     3     5   am
     6     5     6    1
     7     5     7    1
     8     7     8    1
     9     8    16   ar
    10     8     9   ar
    11     9    10   ar
    12    10    15   ar
    13    10    11   ar
    14    11    12   ar
    15    12    13   ar
    16    13    14   ar
    17    14    15   ar
    18    15    16   ar
    19    17    18    1
    20    18    19    2
    21    18    20    1
    22    20    21    2
    23    21    22    1
    24    22    27   ar
    25    22    23   ar
    26    23    24   ar
    27    24    25   ar
    28    25    26   ar
    29    26    31   ar
    30    26    27   ar
    31    27    28   ar
    32    28    29   ar
    33    29    30   ar
    34    30    31   ar
@<TRIPOS>MOLECULE
ZINC10598224
 29 32 0 0 0
SMALL
GASTEIGER

@<TRIPOS>ATOM
      1 O          13.4494   37.2511   28.2407 O.3     1  UNL1       -0.4420
      2 C          12.9573   37.6475   27.0565 C.2     1  UNL1        0.3427
      3 O          13.7090   37.9203   26.1507 O.2     1  UNL1       -0.2478
      4 C          11.4673   37.7522   26.8566 C.3     1  UNL1        0.2427
      5 N          11.1879   38.1868   25.4857 N.ar    1  UNL1       -0.1711
      6 C          10.8830   37.3935   24.4371 C.ar    1  UNL1        0.4396
      7 O          10.7891   36.1803   24.4561 O.2     1  UNL1       -0.2210
      8 O          10.6994   38.1875   23.3691 O.2     1  UNL1       -0.3872
      9 C          10.8959   39.4719   23.7406 C.ar    1  UNL1        0.2571
     10 N          11.1919   39.5065   25.0103 N.ar    1  UNL1       -0.1251
     11 C          10.7924   40.6430   22.8549 C.ar    1  UNL1        0.0846
     12 C          10.1560   41.8386   23.0734 C.ar    1  UNL1        0.0117
     13 C          10.1951   42.7977   22.0872 C.ar    1  UNL1        0.0076
     14 C          10.8595   42.5334   20.9318 C.ar    1  UNL1        0.0356
     15 S          11.4689   40.8803   21.2198 S.2     1  UNL1       -0.0817
     16 C          12.8743   37.8552   29.4292 C.3     1  UNL1        0.2374
     17 C          19.2753   40.1831   33.4796 C.3     1  UNL1        0.0307
     18 C          18.2107   39.6554   32.5526 C.ar    1  UNL1       -0.0244
     19 C          18.5850   39.0102   31.3756 C.ar    1  UNL1       -0.0045
     20 C          17.6470   38.5213   30.5184 C.ar    1  UNL1        0.0011
     21 C          16.2842   38.6712   30.8220 C.ar    1  UNL1        0.0172
     22 C          15.2835   38.1818   29.9606 C.ar    1  UNL1        0.0032
     23 C          13.9790   38.3627   30.3197 C.ar    1  UNL1        0.0498
     24 C          13.6697   39.0174   31.5121 C.ar    1  UNL1        0.1377
     25 N          14.6050   39.4722   32.3117 N.ar    1  UNL1       -0.2345
     26 C          15.9013   39.3272   32.0177 C.ar    1  UNL1        0.0779
     27 C          16.8993   39.8172   32.8782 C.ar    1  UNL1       -0.0081
     28 C          16.5183   40.5183   34.1565 C.3     1  UNL1        0.0323
     29 CL         12.0039   39.2363   31.9490 Cl      1  UNL1       -0.0616
@<TRIPOS>BOND
     1    17    18    1
     2    18    27   ar
     3    18    19   ar
     4    19    20   ar
     5    20    21   ar
     6    21    26   ar
     7    21    22   ar
     8    22    23   ar
     9    23    24   ar
    10    23    16    1
    11    24    25   ar
    12    24    29    1
    13    25    26   ar
    14    26    27   ar
    15    27    28    1
    16    16     1    1
    17     1     2    1
    18     2     3    2
    19     2     4    1
    20     4     5    1
    21     5    10   ar
    22     5     6   ar
    23     6     7    2
    24     6     8   ar
    25     8     9   ar
    26     9    10   ar
    27     9    11    1
    28    11    15   ar
    29    11    12   ar
    30    12    13   ar
    31    13    14   ar
    32    14    15   ar
@<TRIPOS>MOLECULE
ZINC22297781
 30 33 0 0 0
SMALL
GASTEIGER

@<TRIPOS>ATOM
      1 C          23.0816   39.7506   27.9878 C.3     1  UNL1        0.0876
      2 C          25.4138   40.3525   28.8704 C.ar    1  UNL1        0.2173
      3 C          24.1658   40.6892   28.4509 C.ar    1  UNL1        0.0327
      4 C          24.0905   42.1470   28.5341 C.ar    1  UNL1        0.0346
      5 C          23.0945   43.0878   28.2595 C.ar    1  UNL1        0.0028
      6 C          23.3454   44.4163   28.4558 C.ar    1  UNL1        0.0002
      7 C          24.5802   44.8362   28.9318 C.ar    1  UNL1        0.0031
      8 C          25.5737   43.9241   29.2141 C.ar    1  UNL1        0.0375
      9 C          25.3419   42.5667   29.0223 C.ar    1  UNL1        0.1453
     10 O          26.0980   41.4668   29.2045 O.2     1  UNL1       -0.4472
     11 C          25.9383   38.9835   28.9487 C.2     1  UNL1        0.3760
     12 O          26.2113   38.3779   27.9304 O.2     1  UNL1       -0.2414
     13 O          26.1172   38.3977   30.1502 O.3     1  UNL1       -0.4433
     14 C          24.1305   37.0558   30.5772 C.3     1  UNL1        0.0513
     15 C          25.6347   37.0362   30.2980 C.3     1  UNL1        0.2090
     16 S          21.5334   40.1442   28.8472 S.3     1  UNL1       -0.1273
     17 C          20.9032   38.5282   29.3783 C.3     1  UNL1        0.1214
     18 C          19.6504   38.7207   30.1935 C.ar    1  UNL1        0.1316
     19 N          19.7521   38.9596   31.5263 N.ar    1  UNL1       -0.1939
     20 C          18.6589   39.1369   32.2912 C.ar    1  UNL1        0.2818
     21 O          18.7675   39.3502   33.4864 O.2     1  UNL1       -0.2651
     22 C          17.3651   39.0706   31.6783 C.ar    1  UNL1        0.0759
     23 C          16.0532   39.2260   32.2782 C.ar    1  UNL1       -0.0132
     24 C          14.9618   39.1235   31.5029 C.ar    1  UNL1        0.0052
     25 S          15.6347   38.8051   29.8829 S.2     1  UNL1       -0.0745
     26 C          17.3605   38.8191   30.2945 C.ar    1  UNL1        0.0919
     27 N          18.4860   38.6544   29.6055 N.ar    1  UNL1       -0.3361
     28 C          13.5149   39.2478   31.9056 C.3     1  UNL1        0.0379
     29 C          15.9172   39.4998   33.7538 C.3     1  UNL1        0.0314
     30 H          18.4408   38.4800   28.6377 H       1  UNL1        0.1676
@<TRIPOS>BOND
     1    14    15    1
     2    15    13    1
     3    13    11    1
     4    11    12    2
     5    11     2    1
     6     2    10   ar
     7     2     3   ar
     8     3     4   ar
     9     3     1    1
    10     4     9   ar
    11     4     5   ar
    12     5     6   ar
    13     6     7   ar
    14     7     8   ar
    15     8     9   ar
    16     9    10   ar
    17     1    16    1
    18    16    17    1
    19    17    18    1
    20    18    27   ar
    21    18    19   ar
    22    19    20   ar
    23    20    21    2
    24    20    22   ar
    25    22    26   ar
    26    22    23   ar
    27    23    24   ar
    28    23    29    1
    29    24    25   ar
    30    24    28    1
    31    25    26   ar
    32    26    27   ar
    33    27    30    1
@<TRIPOS>MOLECULE
ZINC08821412
 28 30 0 0 0
SMALL
GASTEIGER

@<TRIPOS>ATOM
      1 N          23.8324   40.7377   27.7150 N.am    1  UNL1       -0.2406
      2 C          22.7822   40.1187   28.2257 C.2     1  UNL1        0.2599
      3 O          22.2328   40.5384   29.2284 O.2     1  UNL1       -0.2690
      4 C          22.3082   38.9454   27.5635 C.2     1  UNL1        0.0880
      5 C          21.2560   38.1351   27.8795 C.2     1  UNL1        0.0486
      6 S          23.4724   38.8227   26.2126 S.3     1  UNL1       -0.0603
      7 C          24.4453   40.2683   26.6058 C.2     1  UNL1        0.1215
      8 S          25.8086   40.8997   25.7850 S.2     1  UNL1       -0.0272
      9 C          20.5529   38.3302   29.0875 C.ar    1  UNL1        0.1460
     10 C          21.1063   38.3390   30.3555 C.ar    1  UNL1        0.0406
     11 C          20.0584   38.5637   31.2520 C.ar    1  UNL1        0.0406
     12 C          18.9086   38.6836   30.5050 C.ar    1  UNL1        0.1461
     13 O          19.2261   38.5462   29.2046 O.2     1  UNL1       -0.4534
     14 C          17.5554   38.9283   31.0399 C.ar    1  UNL1        0.0451
     15 C          16.4333   38.7183   30.2343 C.ar    1  UNL1        0.0039
     16 C          15.1717   38.9490   30.7409 C.ar    1  UNL1        0.0002
     17 C          15.0145   39.3873   32.0445 C.ar    1  UNL1        0.0009
     18 C          16.1201   39.5973   32.8490 C.ar    1  UNL1        0.0115
     19 C          17.3894   39.3659   32.3574 C.ar    1  UNL1        0.0606
     20 CL         18.7755   39.6230   33.3705 Cl      1  UNL1       -0.0821
     21 C          24.3432   41.9475   28.3646 C.3     1  UNL1        0.1173
     22 C          25.6918   41.6598   28.9726 C.2     1  UNL1        0.0688
     23 O          26.5347   42.5246   29.0095 O.co2   1  UNL1       -0.5475
     24 O          25.9564   40.4427   29.4731 O.co2   1  UNL1       -0.5475
     25 C          24.4791   43.0644   27.3278 C.3     1  UNL1        0.0259
     26 C          22.8809   43.9422   29.0359 C.3     1  UNL1        0.0001
     27 C          23.7251   44.3045   27.8124 C.3     1  UNL1        0.0020
     28 C          24.7284   45.3962   28.1901 C.3     1  UNL1        0.0001
@<TRIPOS>UNITY_ATOM_ATTR
24 1
charge -1
@<TRIPOS>BOND
     1    26    27    1
     2    27    28    1
     3    27    25    1
     4    25    21    1
     5    21    22    1
     6    21     1    1
     7    22    23   ar
     8    22    24   ar
     9     1     7    1
    10     1     2   am
    11     2     3    2
    12     2     4    1
    13     4     5    2
    14     4     6    1
    15     5     9    1
    16     9    13   ar
    17     9    10   ar
    18    10    11   ar
    19    11    12   ar
    20    12    13   ar
    21    12    14    1
    22    14    19   ar
    23    14    15   ar
    24    15    16   ar
    25    16    17   ar
    26    17    18   ar
    27    18    19   ar
    28    19    20    1
    29     6     7    1
    30     7     8    2
@<TRIPOS>MOLECULE
ZINC25803457
 28 29 0 0 0
SMALL
GASTEIGER

@<TRIPOS>ATOM
      1 C          21.4992   38.7227   28.8951 C.ar    1  UNL1        0.1026
      2 C          22.8560   38.6834   28.9853 C.ar    1  UNL1       -0.0064
      3 C          23.6094   39.8291   28.6847 C.ar    1  UNL1        0.0342
      4 C          25.0145   40.0120   28.7105 C.ar    1  UNL1        0.0623
      5 N          25.5179   41.1829   28.3875 N.ar    1  UNL1       -0.2350
      6 C          24.7601   42.2076   28.0358 C.ar    1  UNL1        0.1384
      7 N          23.4458   42.1062   27.9907 N.ar    1  UNL1       -0.2242
      8 C          22.8585   40.9705   28.2983 C.ar    1  UNL1        0.1130
      9 S          21.1806   40.3994   28.3735 S.2     1  UNL1       -0.0618
     10 C          25.9227   38.8758   29.1044 C.3     1  UNL1        0.0522
     11 C          23.5485   37.4132   29.4075 C.3     1  UNL1        0.0319
     12 C          25.4120   43.5171   27.6730 C.3     1  UNL1        0.0524
     13 C          26.4654   43.8710   28.7248 C.3     1  UNL1        0.0075
     14 C          26.0813   43.3913   26.3030 C.3     1  UNL1        0.0075
     15 C          24.3510   44.6183   27.6232 C.3     1  UNL1        0.0075
     16 C          20.5337   37.6489   29.1610 C.2     1  UNL1        0.3475
     17 O          20.3251   36.7969   28.3192 O.2     1  UNL1       -0.2443
     18 O          19.8784   37.6077   30.3388 O.3     1  UNL1       -0.4350
     19 C          18.8594   38.6177   30.5618 C.3     1  UNL1        0.2930
     20 N          18.2904   39.7309   32.6962 N.am    1  UNL1       -0.2727
     21 C          19.2250   39.4422   31.7691 C.2     1  UNL1        0.2705
     22 O          20.3604   39.8460   31.9064 O.2     1  UNL1       -0.2708
     23 C          16.0201   39.8765   33.5943 C.3     1  UNL1        0.0233
     24 C          16.9189   39.2430   32.5305 C.3     1  UNL1        0.0939
     25 C          18.6459   40.5324   33.8699 C.3     1  UNL1        0.1160
     26 C          19.6060   39.7575   34.7352 C.2     1  UNL1       -0.0242
     27 C          20.6507   40.3553   35.2522 C.2     1  UNL1       -0.0074
     28 C          19.3644   38.2949   35.0057 C.3     1  UNL1        0.0281
@<TRIPOS>BOND
     1    23    24    1
     2    24    20    1
     3    20    25    1
     4    20    21   am
     5    25    26    1
     6    26    27    2
     7    26    28    1
     8    21    22    2
     9    21    19    1
    10    19    18    1
    11    18    16    1
    12    16    17    2
    13    16     1    1
    14     1     9   ar
    15     1     2   ar
    16     2     3   ar
    17     2    11    1
    18     3     8   ar
    19     3     4   ar
    20     4     5   ar
    21     4    10    1
    22     5     6   ar
    23     6     7   ar
    24     6    12    1
    25     7     8   ar
    26     8     9   ar
    27    12    13    1
    28    12    14    1
    29    12    15    1
@<TRIPOS>MOLECULE
ZINC27059463
 30 33 0 0 0
SMALL
GASTEIGER

@<TRIPOS>ATOM
      1 C          22.4739   37.4925   28.5757 C.ar    1  UNL1        0.0786
      2 C          23.1702   37.1176   29.7155 C.ar    1  UNL1        0.0271
      3 C          24.5711   37.1945   29.7253 C.ar    1  UNL1        0.0990
      4 N          25.2474   37.6200   28.6774 N.ar    1  UNL1       -0.2438
      5 C          24.6373   37.9897   27.5503 C.ar    1  UNL1        0.0815
      6 C          23.2235   37.9424   27.4575 C.ar    1  UNL1        0.0239
      7 C          22.5927   38.3383   26.2716 C.ar    1  UNL1        0.0017
      8 C          23.3439   38.7654   25.2177 C.ar    1  UNL1        0.0001
      9 C          24.7338   38.8136   25.3039 C.ar    1  UNL1        0.0015
     10 C          25.3798   38.4366   26.4405 C.ar    1  UNL1        0.0191
     11 C          25.3090   36.7926   30.9477 C.ar    1  UNL1        0.0989
     12 C          24.6466   36.0978   31.9575 C.ar    1  UNL1        0.0207
     13 C          25.3488   35.7286   33.0922 C.ar    1  UNL1        0.0032
     14 C          26.6914   36.0675   33.1795 C.ar    1  UNL1        0.0207
     15 C          27.2855   36.7588   32.1390 C.ar    1  UNL1        0.0989
     16 N          26.5943   37.0975   31.0702 N.ar    1  UNL1       -0.2423
     17 C          20.9983   37.4249   28.5271 C.2     1  UNL1        0.3417
     18 O          20.4504   36.4566   28.0400 O.2     1  UNL1       -0.2449
     19 O          20.2610   38.4375   29.0232 O.3     1  UNL1       -0.4395
     20 C          19.9227   38.3770   30.4340 C.3     1  UNL1        0.2471
     21 C          20.6625   39.4867   31.1839 C.3     1  UNL1        0.0578
     22 C          16.5102   38.9807   31.3712 C.ar    1  UNL1        0.1806
     23 N          17.8181   38.9698   31.6842 N.ar    1  UNL1       -0.1919
     24 C          18.4366   38.5614   30.6025 C.ar    1  UNL1        0.2766
     25 O          17.4977   38.3452   29.6764 O.2     1  UNL1       -0.3336
     26 N          16.4019   38.5855   30.1380 N.ar    1  UNL1       -0.0605
     27 C          15.3781   39.3785   32.2829 C.3     1  UNL1        0.0692
     28 C          15.8980   39.5050   33.7162 C.3     1  UNL1        0.0081
     29 C          17.5361   41.2825   34.3483 C.3     1  UNL1        0.0000
     30 C          16.0613   40.9844   34.0707 C.3     1  UNL1        0.0005
@<TRIPOS>BOND
     1    29    30    1
     2    30    28    1
     3    28    27    1
     4    27    22    1
     5    22    26   ar
     6    22    23   ar
     7    23    24   ar
     8    24    25   ar
     9    24    20    1
    10    25    26   ar
    11    20    21    1
    12    20    19    1
    13    19    17    1
    14    17    18    2
    15    17     1    1
    16     1     6   ar
    17     1     2   ar
    18     2     3   ar
    19     3     4   ar
    20     3    11    1
    21     4     5   ar
    22     5    10   ar
    23     5     6   ar
    24     6     7   ar
    25     7     8   ar
    26     8     9   ar
    27     9    10   ar
    28    11    16   ar
    29    11    12   ar
    30    12    13   ar
    31    13    14   ar
    32    14    15   ar
    33    15    16   ar
@<TRIPOS>MOLECULE
ZINC30790543
 29 32 0 0 0
SMALL
GASTEIGER

@<TRIPOS>ATOM
      1 C          14.6743   37.2975   28.4432 C.2     1  UNL1        0.3418
      2 O          14.8406   36.1638   28.8523 O.2     1  UNL1       -0.2449
      3 C          13.7357   37.5480   27.4132 C.2     1  UNL1        0.0820
      4 C          12.4198   37.3290   27.6300 C.2     1  UNL1        0.0098
      5 C          11.4460   37.5889   26.5611 C.ar    1  UNL1        0.0399
      6 C          10.7524   36.6177   25.8018 C.ar    1  UNL1        0.1216
      7 N           9.9818   37.2422   24.9546 N.ar    1  UNL1       -0.1673
      8 N          10.1409   38.6217   25.1264 N.ar    1  UNL1       -0.2449
      9 C          11.0390   38.8295   26.1040 C.ar    1  UNL1        0.0970
     10 C           9.4491   39.6642   24.3642 C.3     1  UNL1        0.1538
     11 C          10.4502   40.4310   23.5390 C.ar    1  UNL1        0.0021
     12 C          10.8369   39.9524   22.3011 C.ar    1  UNL1       -0.0023
     13 C          11.7592   40.6531   21.5466 C.ar    1  UNL1       -0.0003
     14 C          12.2873   41.8374   22.0255 C.ar    1  UNL1       -0.0000
     15 C          11.8999   42.3164   23.2629 C.ar    1  UNL1       -0.0003
     16 C          10.9812   41.6133   24.0197 C.ar    1  UNL1       -0.0023
     17 O          15.3843   38.3164   28.9715 O.3     1  UNL1       -0.4395
     18 C          14.3915   39.8370   30.5661 C.3     1  UNL1        0.0578
     19 C          15.2198   38.5657   30.3689 C.3     1  UNL1        0.2471
     20 C          16.5720   38.7426   31.0103 C.ar    1  UNL1        0.2769
     21 N          16.8171   39.3181   32.1604 N.ar    1  UNL1       -0.1873
     22 C          18.1588   39.2434   32.3258 C.ar    1  UNL1        0.2094
     23 N          18.6441   38.6385   31.2694 N.ar    1  UNL1       -0.0554
     24 O          17.7460   38.3465   30.5084 O.2     1  UNL1       -0.3332
     25 C          18.9310   39.7530   33.4775 C.ar    1  UNL1        0.0685
     26 C          19.9253   39.1371   34.1905 C.ar    1  UNL1        0.0102
     27 C          20.5073   39.8159   35.2369 C.ar    1  UNL1        0.0076
     28 C          20.0801   41.0718   35.5307 C.ar    1  UNL1        0.0355
     29 S          18.8164   41.3349   34.2974 S.2     1  UNL1       -0.0832
@<TRIPOS>BOND
     1    18    19    1
     2    19    20    1
     3    19    17    1
     4    20    24   ar
     5    20    21   ar
     6    21    22   ar
     7    22    23   ar
     8    22    25    1
     9    23    24   ar
    10    25    29   ar
    11    25    26   ar
    12    26    27   ar
    13    27    28   ar
    14    28    29   ar
    15    17     1    1
    16     1     2    2
    17     1     3    1
    18     3     4    2
    19     4     5    1
    20     5     9   ar
    21     5     6   ar
    22     6     7   ar
    23     7     8   ar
    24     8     9   ar
    25     8    10    1
    26    10    11    1
    27    11    16   ar
    28    11    12   ar
    29    12    13   ar
    30    13    14   ar
    31    14    15   ar
    32    15    16   ar
@<TRIPOS>MOLECULE
ZINC03460372
 30 33 0 0 0
SMALL
GASTEIGER

@<TRIPOS>ATOM
      1 C          17.8521   38.8464   30.9274 C.ar    1  UNL1        0.1140
      2 C          16.6415   38.5654   30.3264 C.ar    1  UNL1        0.1084
      3 N          15.6665   38.8880   31.1934 N.ar    1  UNL1       -0.2280
      4 N          16.2308   39.3749   32.3758 N.ar    1  UNL1       -0.1648
      5 C          17.5396   39.3717   32.2609 C.ar    1  UNL1        0.1090
      6 C          18.5159   39.8141   33.2852 C.ar    1  UNL1        0.0196
      7 C          18.3850   41.0673   33.8815 C.ar    1  UNL1        0.0016
      8 C          19.2940   41.4717   34.8378 C.ar    1  UNL1        0.0000
      9 C          20.3396   40.6404   35.1975 C.ar    1  UNL1        0.0000
     10 C          20.4775   39.3978   34.6054 C.ar    1  UNL1        0.0000
     11 C          19.5714   38.9806   33.6517 C.ar    1  UNL1        0.0016
     12 C          14.2933   38.7531   30.9504 C.ar    1  UNL1        0.0829
     13 C          13.3749   39.3853   31.7781 C.ar    1  UNL1        0.0191
     14 C          12.0220   39.2543   31.5332 C.ar    1  UNL1        0.0015
     15 C          11.5814   38.4859   30.4712 C.ar    1  UNL1        0.0001
     16 C          12.4934   37.8508   29.6483 C.ar    1  UNL1        0.0015
     17 C          13.8478   37.9823   29.8849 C.ar    1  UNL1        0.0191
     18 C          19.1902   38.6564   30.3460 C.2     1  UNL1        0.3447
     19 O          19.7025   37.5541   30.3475 O.2     1  UNL1       -0.2448
     20 O          19.8478   39.7044   29.8118 O.3     1  UNL1       -0.4369
     21 C          20.4594   39.5048   28.5101 C.3     1  UNL1        0.2723
     22 C          22.9585   42.1615   28.3198 C.ar    1  UNL1        0.2202
     23 C          23.7687   41.0773   28.1329 C.ar    1  UNL1        0.0471
     24 C          22.9436   39.9436   28.1841 C.ar    1  UNL1        0.0401
     25 C          21.6807   40.3795   28.3894 C.ar    1  UNL1        0.1672
     26 O          21.6941   41.7158   28.4735 O.2     1  UNL1       -0.4475
     27 C          23.3870   43.5618   28.3477 C.2     1  UNL1        0.3764
     28 O          23.5015   44.1836   27.3088 O.2     1  UNL1       -0.2414
     29 C          24.9935   44.6949   29.7049 C.3     1  UNL1        0.2561
     30 O          23.6548   44.1618   29.5259 O.3     1  UNL1       -0.4392
@<TRIPOS>BOND
     1    29    30    1
     2    30    27    1
     3    27    28    2
     4    27    22    1
     5    22    26   ar
     6    22    23   ar
     7    23    24   ar
     8    24    25   ar
     9    25    26   ar
    10    25    21    1
    11    21    20    1
    12    20    18    1
    13    18    19    2
    14    18     1    1
    15     1     5   ar
    16     1     2   ar
    17     2     3   ar
    18     3     4   ar
    19     3    12    1
    20     4     5   ar
    21     5     6    1
    22     6    11   ar
    23     6     7   ar
    24     7     8   ar
    25     8     9   ar
    26     9    10   ar
    27    10    11   ar
    28    12    17   ar
    29    12    13   ar
    30    13    14   ar
    31    14    15   ar
    32    15    16   ar
    33    16    17   ar
@<TRIPOS>MOLECULE
ZINC14675468
 27 29 0 0 0
SMALL
GASTEIGER

@<TRIPOS>ATOM
      1 C          22.1109   38.1117   28.8148 C.ar    1  UNL1        0.1065
      2 C          23.2039   37.5229   29.3798 C.ar    1  UNL1        0.0163
      3 C          24.4175   38.2247   29.4392 C.ar    1  UNL1        0.0398
      4 C          25.7586   38.0351   29.9087 C.ar    1  UNL1        0.0813
      5 N          26.4515   39.1058   29.6616 N.ar    1  UNL1       -0.1690
      6 N          25.6368   40.0526   29.0279 N.ar    1  UNL1       -0.2239
      7 C          24.4043   39.5199   28.8991 C.ar    1  UNL1        0.1135
      8 S          22.7361   39.7105   28.3269 S.2     1  UNL1       -0.0615
      9 C          26.2812   36.7921   30.5817 C.3     1  UNL1        0.0540
     10 C          26.0308   41.3294   28.6075 C.ar    1  UNL1        0.0842
     11 C          27.0632   41.4719   27.6893 C.ar    1  UNL1        0.0192
     12 C          27.4460   42.7314   27.2721 C.ar    1  UNL1        0.0024
     13 C          26.8027   43.8510   27.7672 C.ar    1  UNL1        0.0115
     14 C          25.7736   43.7130   28.6820 C.ar    1  UNL1        0.0592
     15 C          25.3862   42.4546   29.1033 C.ar    1  UNL1        0.0306
     16 CL         24.9691   45.1210   29.3015 Cl      1  UNL1       -0.0822
     17 C          20.7617   37.5677   28.6498 C.2     1  UNL1        0.3479
     18 O          20.6047   36.4747   28.1398 O.2     1  UNL1       -0.2443
     19 O          19.6926   38.2789   29.0632 O.3     1  UNL1       -0.4327
     20 C          19.5016   38.4089   30.4967 C.3     1  UNL1        0.3170
     21 C          18.0427   38.6469   30.7897 C.2     1  UNL1        0.3621
     22 O          17.2032   38.3131   29.9875 O.2     1  UNL1       -0.2459
     23 O          17.6759   39.2299   31.9419 O.3     1  UNL1       -0.4459
     24 C          18.7358   39.7733   32.7722 C.3     1  UNL1        0.2086
     25 C          18.6061   39.2190   34.1923 C.3     1  UNL1        0.0474
     26 C          20.5776   40.3927   35.1813 C.3     1  UNL1        0.0001
     27 C          19.9996   39.0298   34.7952 C.3     1  UNL1        0.0038
@<TRIPOS>BOND
     1    26    27    1
     2    27    25    1
     3    25    24    1
     4    24    23    1
     5    23    21    1
     6    21    22    2
     7    21    20    1
     8    20    19    1
     9    19    17    1
    10    17    18    2
    11    17     1    1
    12     1     8   ar
    13     1     2   ar
    14     2     3   ar
    15     3     7   ar
    16     3     4   ar
    17     4     5   ar
    18     4     9    1
    19     5     6   ar
    20     6     7   ar
    21     6    10    1
    22     7     8   ar
    23    10    15   ar
    24    10    11   ar
    25    11    12   ar
    26    12    13   ar
    27    13    14   ar
    28    14    15   ar
    29    14    16    1
@<TRIPOS>MOLECULE
ZINC22018385
 28 30 0 0 0
SMALL
GASTEIGER

@<TRIPOS>ATOM
      1 O          13.7312   37.5020   29.9590 O.3     1  UNL1       -0.4399
      2 C          12.7778   37.6521   29.0261 C.2     1  UNL1        0.3179
      3 O          11.6369   37.8715   29.3580 O.2     1  UNL1       -0.2501
      4 C          13.1305   37.5469   27.5646 C.3     1  UNL1        0.1194
      5 C          11.8861   37.1521   26.7669 C.3     1  UNL1        0.0997
      6 C          11.4420   38.3166   25.9198 C.ar    1  UNL1        0.2371
      7 N          11.9567   38.6851   24.7732 N.ar    1  UNL1       -0.1907
      8 C          11.2442   39.7679   24.3864 C.ar    1  UNL1        0.2038
      9 N          10.3471   39.9906   25.3128 N.ar    1  UNL1       -0.0560
     10 O          10.4452   39.1637   26.1947 O.2     1  UNL1       -0.3370
     11 C          11.4418   40.5543   23.1454 C.ar    1  UNL1        0.0461
     12 C          12.1602   41.7482   23.1634 C.ar    1  UNL1        0.0106
     13 C          12.3064   42.4110   21.9944 C.ar    1  UNL1        0.0356
     14 S          11.4203   41.3671   20.8521 S.2     1  UNL1       -0.0858
     15 C          10.9198   40.1296   21.9579 C.ar    1  UNL1        0.0386
     16 C          15.1035   37.7263   29.5411 C.3     1  UNL1        0.2766
     17 C          15.6045   39.0178   30.1345 C.2     1  UNL1        0.2167
     18 O          14.9532   40.0334   30.0138 O.2     1  UNL1       -0.2874
     19 C          20.5637   38.4998   30.1558 C.3     1  UNL1        0.0307
     20 C          19.2745   38.7978   30.8771 C.ar    1  UNL1       -0.0260
     21 C          18.0794   38.7695   30.1895 C.ar    1  UNL1       -0.0019
     22 C          16.8843   39.0462   30.8606 C.ar    1  UNL1        0.0339
     23 C          16.9114   39.3498   32.2258 C.ar    1  UNL1       -0.0232
     24 C          18.1147   39.3793   32.8979 C.ar    1  UNL1       -0.0299
     25 C          19.2931   39.0994   32.2275 C.ar    1  UNL1       -0.0300
     26 C          20.6036   39.1291   32.9710 C.3     1  UNL1        0.0304
     27 C          18.1468   39.7118   34.3673 C.3     1  UNL1        0.0304
     28 C          15.6292   39.6502   32.9585 C.3     1  UNL1        0.0308
@<TRIPOS>BOND
     1    19    20    1
     2    20    25   ar
     3    20    21   ar
     4    21    22   ar
     5    22    23   ar
     6    22    17    1
     7    23    24   ar
     8    23    28    1
     9    24    25   ar
    10    24    27    1
    11    25    26    1
    12    17    18    2
    13    17    16    1
    14    16     1    1
    15     1     2    1
    16     2     3    2
    17     2     4    1
    18     4     5    1
    19     5     6    1
    20     6    10   ar
    21     6     7   ar
    22     7     8   ar
    23     8     9   ar
    24     8    11    1
    25     9    10   ar
    26    11    15   ar
    27    11    12   ar
    28    12    13   ar
    29    13    14   ar
    30    14    15   ar
@<TRIPOS>MOLECULE
ZINC13748973
 29 31 0 0 0
SMALL
GASTEIGER

@<TRIPOS>ATOM
      1 C          23.3094   38.7685   28.6270 C.ar    1  UNL1        0.1151
      2 C          24.5742   38.4858   29.1735 C.ar    1  UNL1        0.1469
      3 N          25.4792   39.4382   29.2951 N.ar    1  UNL1       -0.2279
      4 C          25.1872   40.6836   28.8995 C.ar    1  UNL1        0.1003
      5 C          26.1296   41.7193   29.0156 C.ar    1  UNL1        0.0207
      6 C          25.8058   42.9761   28.6050 C.ar    1  UNL1        0.0016
      7 C          24.5496   43.2530   28.0693 C.ar    1  UNL1        0.0016
      8 C          23.6119   42.2747   27.9419 C.ar    1  UNL1        0.0206
      9 C          23.9101   40.9652   28.3550 C.ar    1  UNL1        0.0987
     10 N          23.0060   39.9838   28.2404 N.ar    1  UNL1       -0.2437
     11 N          24.8743   37.1950   29.5825 N.pl3   1  UNL1       -0.2923
     12 C          26.1681   36.7591   29.0416 C.3     1  UNL1        0.0922
     13 C          26.3983   35.2869   29.3905 C.3     1  UNL1        0.0215
     14 C          26.3775   35.1189   30.9124 C.3     1  UNL1        0.0035
     15 C          25.0384   35.6250   31.4557 C.3     1  UNL1        0.0199
     16 C          24.8475   37.0874   31.0468 C.3     1  UNL1        0.0921
     17 C          25.0319   35.5154   32.9817 C.3     1  UNL1        0.0018
     18 C          22.2915   37.6656   28.4908 C.3     1  UNL1        0.2319
     19 C          21.0821   37.9920   29.3284 C.2     1  UNL1        0.3369
     20 O          19.9751   37.8995   28.8530 O.2     1  UNL1       -0.2485
     21 O          21.2345   38.3854   30.6027 O.3     1  UNL1       -0.4475
     22 C          20.2911   39.3674   31.1067 C.3     1  UNL1        0.2085
     23 C          19.2642   38.6742   32.0045 C.3     1  UNL1        0.0474
     24 C          18.9908   39.5443   33.2329 C.3     1  UNL1        0.0038
     25 C          19.7227   38.9617   34.4436 C.3     1  UNL1        0.0001
     26 C          19.6063   41.2589   35.4190 C.3     1  UNL1        0.0000
     27 C          20.5226   40.0668   35.1364 C.3     1  UNL1        0.0000
     28 C          21.8915   37.5387   27.0798 C.1     1  UNL1        0.0898
     29 N          21.5827   37.4406   25.9910 N.1     1  UNL1       -0.1949
@<TRIPOS>BOND
     1    26    27    1
     2    27    25    1
     3    25    24    1
     4    24    23    1
     5    23    22    1
     6    22    21    1
     7    21    19    1
     8    19    20    2
     9    19    18    1
    10    18    28    1
    11    18     1    1
    12    28    29    3
    13     1    10   ar
    14     1     2   ar
    15     2     3   ar
    16     2    11    1
    17     3     4   ar
    18     4     9   ar
    19     4     5   ar
    20     5     6   ar
    21     6     7   ar
    22     7     8   ar
    23     8     9   ar
    24     9    10   ar
    25    11    16    1
    26    11    12    1
    27    12    13    1
    28    13    14    1
    29    14    15    1
    30    15    16    1
    31    15    17    1
@<TRIPOS>MOLECULE
ZINC14148449
 30 33 0 0 0
SMALL
GASTEIGER

@<TRIPOS>ATOM
      1 C          12.6795   37.5960   28.6735 C.3     1  UNL1        0.2957
      2 C          15.6703   38.5670   30.4145 C.ar    1  UNL1        0.2034
      3 N          14.3356   38.3506   30.4110 N.ar    1  UNL1       -0.1876
      4 C          14.0456   37.9606   29.1948 C.ar    1  UNL1        0.2812
      5 O          15.1901   37.9407   28.5045 O.2     1  UNL1       -0.3331
      6 N          16.1095   38.2897   29.2145 N.ar    1  UNL1       -0.0559
      7 C          18.0055   39.8846   33.7154 C.ar    1  UNL1       -0.0225
      8 C          18.6256   39.3296   32.6104 C.ar    1  UNL1       -0.0042
      9 C          17.8722   38.8957   31.5385 C.ar    1  UNL1        0.0028
     10 C          16.4854   39.0271   31.5665 C.ar    1  UNL1        0.0391
     11 C          15.8664   39.5917   32.6797 C.ar    1  UNL1        0.0028
     12 C          16.6292   40.0175   33.7483 C.ar    1  UNL1       -0.0042
     13 C          19.3862   41.7482   34.5930 C.3     1  UNL1        0.0047
     14 C          18.8331   40.3518   34.8850 C.3     1  UNL1        0.0224
     15 C          19.9936   39.3802   35.1090 C.3     1  UNL1        0.0047
     16 O          12.7204   37.5141   27.2244 O.3     1  UNL1       -0.4350
     17 C          11.5382   37.4500   26.5818 C.2     1  UNL1        0.3417
     18 O          10.8694   36.4377   26.6401 O.2     1  UNL1       -0.2449
     19 C          11.0551   38.6109   25.8064 C.ar    1  UNL1        0.0756
     20 C          11.3502   38.7172   24.4458 C.ar    1  UNL1        0.0062
     21 C          10.8910   39.8010   23.7265 C.ar    1  UNL1       -0.0021
     22 C          10.1493   40.7870   24.3527 C.ar    1  UNL1        0.0022
     23 C           9.8581   40.6908   25.7020 C.ar    1  UNL1       -0.0021
     24 C          10.3062   39.6096   26.4320 C.ar    1  UNL1        0.0062
     25 C           9.6561   41.9710   23.5615 C.3     1  UNL1        0.1556
     26 N          10.5623   42.2189   22.4374 N.ar    1  UNL1       -0.2255
     27 C          11.8145   42.7033   22.5036 C.ar    1  UNL1        0.1975
     28 N          12.2866   42.7763   21.2856 N.ar    1  UNL1       -0.2007
     29 C          11.3690   42.3494   20.4190 C.ar    1  UNL1        0.2210
     30 N          10.2975   41.9921   21.0769 N.ar    1  UNL1       -0.1448
@<TRIPOS>BOND
     1    13    14    1
     2    14    15    1
     3    14     7    1
     4     7    12   ar
     5     7     8   ar
     6     8     9   ar
     7     9    10   ar
     8    10    11   ar
     9    10     2    1
    10    11    12   ar
    11     2     6   ar
    12     2     3   ar
    13     3     4   ar
    14     4     5   ar
    15     4     1    1
    16     5     6   ar
    17     1    16    1
    18    16    17    1
    19    17    18    2
    20    17    19    1
    21    19    24   ar
    22    19    20   ar
    23    20    21   ar
    24    21    22   ar
    25    22    23   ar
    26    22    25    1
    27    23    24   ar
    28    25    26    1
    29    26    30   ar
    30    26    27   ar
    31    27    28   ar
    32    28    29   ar
    33    29    30   ar
@<TRIPOS>MOLECULE
ZINC30475691
 28 30 0 0 0
SMALL
GASTEIGER

@<TRIPOS>ATOM
      1 N          22.6019   39.1196   28.3109 N.am    1  UNL1       -0.2738
      2 C          21.3236   38.6974   28.3739 C.2     1  UNL1        0.2510
      3 O          20.5057   39.1203   27.5845 O.2     1  UNL1       -0.2727
      4 C          23.5899   38.6087   29.2644 C.3     1  UNL1        0.0938
      5 C          24.5606   37.6732   28.5409 C.3     1  UNL1        0.0215
      6 C          25.3357   36.8477   29.5697 C.3     1  UNL1        0.0018
      7 C          25.0276   35.4295   31.6036 C.3     1  UNL1        0.0000
      8 C          24.4478   36.5870   30.7881 C.3     1  UNL1        0.0001
      9 C          23.0036   40.0895   27.2890 C.3     1  UNL1        0.1202
     10 C          23.4111   41.3793   27.9532 C.ar    1  UNL1       -0.0022
     11 C          24.7505   41.6931   28.0891 C.ar    1  UNL1       -0.0003
     12 C          25.1253   42.8779   28.6937 C.ar    1  UNL1        0.0294
     13 C          24.1589   43.7461   29.1727 C.ar    1  UNL1        0.1401
     14 C          22.8178   43.4284   29.0406 C.ar    1  UNL1        0.0294
     15 C          22.4453   42.2454   28.4310 C.ar    1  UNL1       -0.0003
     16 F          24.5243   44.9025   29.7680 F       1  UNL1       -0.2042
     17 C          20.9104   37.6997   29.4250 C.3     1  UNL1        0.2186
     18 N          20.3421   38.4083   30.5744 N.ar    1  UNL1       -0.1720
     19 C          19.0325   38.6558   30.7925 C.ar    1  UNL1        0.3704
     20 O          18.1003   38.3354   30.0766 O.2     1  UNL1       -0.2428
     21 N          18.9607   39.3258   31.9629 N.ar    1  UNL1       -0.1533
     22 N          20.2683   39.4827   32.4386 N.ar    1  UNL1       -0.0372
     23 N          21.0580   38.9582   31.6448 N.ar    1  UNL1       -0.0413
     24 C          17.7940   39.7844   32.5835 C.ar    1  UNL1        0.1185
     25 C          16.5058   39.3860   32.3901 C.ar    1  UNL1        0.0266
     26 C          15.5046   39.9863   33.1302 C.ar    1  UNL1        0.0091
     27 C          15.8324   40.9586   34.0152 C.ar    1  UNL1        0.0370
     28 S          17.6056   41.0491   33.8293 S.2     1  UNL1       -0.0673
@<TRIPOS>BOND
     1     7     8    1
     2     8     6    1
     3     6     5    1
     4     5     4    1
     5     4     1    1
     6     1     9    1
     7     1     2   am
     8     9    10    1
     9    10    15   ar
    10    10    11   ar
    11    11    12   ar
    12    12    13   ar
    13    13    14   ar
    14    13    16    1
    15    14    15   ar
    16     2     3    2
    17     2    17    1
    18    17    18    1
    19    18    23   ar
    20    18    19   ar
    21    19    20    2
    22    19    21   ar
    23    21    22   ar
    24    21    24    1
    25    22    23   ar
    26    24    28   ar
    27    24    25   ar
    28    25    26   ar
    29    26    27   ar
    30    27    28   ar
@<TRIPOS>MOLECULE
ZINC23429459
 27 29 0 0 0
SMALL
GASTEIGER

@<TRIPOS>ATOM
      1 C          24.8541   43.4349   28.0273 C.ar    1  UNL1        0.0089
      2 C          25.3339   42.2070   28.2736 C.ar    1  UNL1        0.0090
      3 C          24.4040   41.1132   28.4962 C.ar    1  UNL1        0.0802
      4 C          23.0433   41.4678   28.4279 C.ar    1  UNL1        0.1171
      5 S          23.0868   43.2068   28.0772 S.2     1  UNL1       -0.0721
      6 N          22.0739   40.5793   28.6096 N.ar    1  UNL1       -0.2158
      7 C          22.3524   39.3157   28.8583 C.ar    1  UNL1        0.1743
      8 N          23.6453   38.8877   28.9473 N.ar    1  UNL1       -0.2756
      9 C          24.6751   39.7363   28.7735 C.ar    1  UNL1        0.2642
     10 O          25.8242   39.3368   28.8511 O.2     1  UNL1       -0.2669
     11 C          24.7312   45.9114   28.0611 C.3     1  UNL1        0.0056
     12 C          25.6247   44.7041   27.7697 C.3     1  UNL1        0.0330
     13 C          23.9171   37.4765   29.2316 C.3     1  UNL1        0.1110
     14 C          24.0722   37.2810   30.7411 C.3     1  UNL1        0.0246
     15 C          24.9190   36.0353   31.0097 C.3     1  UNL1        0.0019
     16 C          26.3177   36.2332   30.4220 C.3     1  UNL1        0.0001
     17 C          25.0273   35.8079   32.5188 C.3     1  UNL1        0.0001
     18 S          21.0380   38.1646   29.0866 S.3     1  UNL1       -0.0688
     19 C          19.7749   39.2625   29.7759 C.3     1  UNL1        0.1355
     20 C          19.2150   38.6551   31.0364 C.2     1  UNL1        0.1999
     21 O          18.6345   37.5895   30.9909 O.2     1  UNL1       -0.2889
     22 C          19.3656   39.3258   32.2715 C.ar    1  UNL1        0.0960
     23 C          20.5482   39.5041   32.9686 C.ar    1  UNL1        0.0217
     24 C          20.2339   40.2164   34.1272 C.ar    1  UNL1        0.0202
     25 C          18.8989   40.4562   34.1201 C.ar    1  UNL1        0.0760
     26 N          18.3626   39.9283   33.0008 N.ar    1  UNL1       -0.3218
     27 C          16.9479   39.9831   32.6240 C.3     1  UNL1        0.1306
@<TRIPOS>BOND
     1    11    12    1
     2    12     1    1
     3     1     5   ar
     4     1     2   ar
     5     2     3   ar
     6     3     9   ar
     7     3     4   ar
     8     4     5   ar
     9     4     6   ar
    10     6     7   ar
    11     7     8   ar
    12     7    18    1
    13     8     9   ar
    14     8    13    1
    15     9    10    2
    16    13    14    1
    17    14    15    1
    18    15    16    1
    19    15    17    1
    20    18    19    1
    21    19    20    1
    22    20    21    2
    23    20    22    1
    24    22    26   ar
    25    22    23   ar
    26    23    24   ar
    27    24    25   ar
    28    25    26   ar
    29    26    27    1
@<TRIPOS>MOLECULE
ZINC27473296
 29 32 0 0 0
SMALL
GASTEIGER

@<TRIPOS>ATOM
      1 C          15.1257   38.2291   29.8657 C.2     1  UNL1        0.2170
      2 O          15.9703   37.8168   29.0996 O.2     1  UNL1       -0.2874
      3 C          20.5778   40.4407   35.0505 C.ar    1  UNL1       -0.0003
      4 C          20.7153   39.4923   34.0528 C.ar    1  UNL1       -0.0000
      5 C          19.6590   39.2099   33.2121 C.ar    1  UNL1       -0.0003
      6 C          18.4455   39.8826   33.3670 C.ar    1  UNL1       -0.0039
      7 C          18.3167   40.8350   34.3737 C.ar    1  UNL1       -0.0178
      8 C          19.3781   41.1112   35.2096 C.ar    1  UNL1       -0.0039
      9 C          16.9144   41.3876   34.3010 C.3     1  UNL1        0.0526
     10 C          16.2403   40.6674   33.1582 C.ar    1  UNL1       -0.0178
     11 C          17.1680   39.7785   32.6182 C.ar    1  UNL1       -0.0038
     12 C          16.8035   38.9778   31.5380 C.ar    1  UNL1        0.0027
     13 C          15.5161   39.0722   31.0072 C.ar    1  UNL1        0.0384
     14 C          14.5993   39.9739   31.5585 C.ar    1  UNL1        0.0027
     15 C          14.9669   40.7598   32.6314 C.ar    1  UNL1       -0.0038
     16 C          13.6762   37.8782   29.6492 C.3     1  UNL1        0.2766
     17 O          13.5638   36.9490   28.5390 O.3     1  UNL1       -0.4399
     18 C          12.9354   37.3888   27.4374 C.2     1  UNL1        0.3174
     19 O          13.5748   37.8402   26.5169 O.2     1  UNL1       -0.2501
     20 C          11.4327   37.3196   27.3488 C.3     1  UNL1        0.1100
     21 C          11.0318   36.4135   26.1830 C.3     1  UNL1        0.0198
     22 C           9.9733   37.1169   25.3310 C.3     1  UNL1        0.0703
     23 C          10.6461   37.8540   24.2018 C.2     1  UNL1        0.1790
     24 O          11.2420   37.2359   23.3429 O.2     1  UNL1       -0.2908
     25 C          10.5835   39.2637   24.1423 C.ar    1  UNL1        0.0641
     26 C          10.2144   40.1680   25.1332 C.ar    1  UNL1        0.0099
     27 C          10.2373   41.4972   24.8024 C.ar    1  UNL1        0.0076
     28 C          10.6121   41.8640   23.5466 C.ar    1  UNL1        0.0355
     29 S          10.9496   40.3491   22.7744 S.2     1  UNL1       -0.0836
@<TRIPOS>BOND
     1     3     8   ar
     2     3     4   ar
     3     4     5   ar
     4     5     6   ar
     5     6    11    1
     6     6     7   ar
     7     7     8   ar
     8     7     9    1
     9     9    10    1
    10    10    15   ar
    11    10    11   ar
    12    11    12   ar
    13    12    13   ar
    14    13    14   ar
    15    13     1    1
    16    14    15   ar
    17     1     2    2
    18     1    16    1
    19    16    17    1
    20    17    18    1
    21    18    19    2
    22    18    20    1
    23    20    21    1
    24    21    22    1
    25    22    23    1
    26    23    24    2
    27    23    25    1
    28    25    29   ar
    29    25    26   ar
    30    26    27   ar
    31    27    28   ar
    32    28    29   ar
@<TRIPOS>MOLECULE
ZINC05030682
 30 33 0 0 0
SMALL
GASTEIGER

@<TRIPOS>ATOM
      1 N          20.4604   38.9971   31.9548 N.ar    1  UNL1       -0.2967
      2 C          21.2290   38.7758   30.8420 C.ar    1  UNL1        0.1523
      3 C          20.3850   38.6073   29.7387 C.ar    1  UNL1        0.1108
      4 C          19.0088   38.7385   30.2341 C.ar    1  UNL1        0.1228
      5 C          19.1188   38.9820   31.6299 C.ar    1  UNL1        0.1629
      6 N          18.0312   39.1447   32.3578 N.ar    1  UNL1       -0.2252
      7 C          16.8260   39.0812   31.7813 C.ar    1  UNL1        0.1005
      8 C          15.6553   39.2521   32.5412 C.ar    1  UNL1        0.0207
      9 C          14.4395   39.1827   31.9341 C.ar    1  UNL1        0.0016
     10 C          14.3338   38.9438   30.5647 C.ar    1  UNL1        0.0016
     11 C          15.4436   38.7733   29.7966 C.ar    1  UNL1        0.0206
     12 C          16.7185   38.8382   30.3880 C.ar    1  UNL1        0.0990
     13 N          17.8240   38.6735   29.6547 N.ar    1  UNL1       -0.2405
     14 C          20.9559   38.3653   28.4708 C.ar    1  UNL1        0.2661
     15 O          20.2530   38.2138   27.4862 O.2     1  UNL1       -0.2668
     16 N          22.3037   38.3120   28.3767 N.ar    1  UNL1       -0.2858
     17 C          23.0698   38.4775   29.4812 C.ar    1  UNL1        0.1240
     18 N          22.5571   38.7018   30.6590 N.ar    1  UNL1       -0.2150
     19 C          24.5688   38.4060   29.3430 C.3     1  UNL1        0.0641
     20 C          25.0843   37.1393   30.0290 C.3     1  UNL1        0.0084
     21 C          22.9366   38.0685   27.0781 C.3     1  UNL1        0.0895
     22 C          21.9344   37.3912   26.1413 C.3     1  UNL1        0.0246
     23 C          23.3831   39.3999   26.4708 C.3     1  UNL1        0.0227
     24 C          23.8273   39.1770   25.0237 C.3     1  UNL1        0.0020
     25 C          20.9893   39.2194   33.3029 C.3     1  UNL1        0.1089
     26 C          20.1927   38.3844   34.3074 C.3     1  UNL1        0.0246
     27 C          19.8381   39.2471   35.5202 C.3     1  UNL1        0.0020
     28 C          20.3538   40.6709   35.3014 C.3     1  UNL1        0.0001
     29 C          18.0865   41.4520   34.6002 C.3     1  UNL1        0.0000
     30 C          19.2316   41.6699   35.5911 C.3     1  UNL1        0.0000
@<TRIPOS>BOND
     1    29    30    1
     2    30    28    1
     3    28    27    1
     4    27    26    1
     5    26    25    1
     6    25     1    1
     7     1     5   ar
     8     1     2   ar
     9     2    18   ar
    10     2     3   ar
    11     3     4   ar
    12     3    14   ar
    13     4    13   ar
    14     4     5   ar
    15     5     6   ar
    16     6     7   ar
    17     7    12   ar
    18     7     8   ar
    19     8     9   ar
    20     9    10   ar
    21    10    11   ar
    22    11    12   ar
    23    12    13   ar
    24    14    15    2
    25    14    16   ar
    26    16    17   ar
    27    16    21    1
    28    17    18   ar
    29    17    19    1
    30    19    20    1
    31    21    22    1
    32    21    23    1
    33    23    24    1
@<TRIPOS>MOLECULE
ZINC08321468
 29 32 0 0 0
SMALL
GASTEIGER

@<TRIPOS>ATOM
      1 C          22.6809   37.7113   29.6399 C.1     1  UNL1       -0.0751
      2 C          23.8261   37.4845   29.7644 C.1     1  UNL1       -0.0429
      3 C          21.2451   37.9956   29.4840 C.3     1  UNL1        0.1407
      4 S          20.7876   39.3896   30.5439 S.3     1  UNL1       -0.0596
      5 N          18.3857   39.2557   31.9589 N.ar    1  UNL1       -0.1865
      6 C          19.0881   39.0171   30.8227 C.ar    1  UNL1        0.2156
      7 N          18.2616   38.4500   29.9705 N.ar    1  UNL1       -0.1011
      8 N          17.0950   38.3226   30.4919 N.ar    1  UNL1       -0.0218
      9 N          17.0863   38.7891   31.6934 N.ar    1  UNL1       -0.0382
     10 C          16.8276   41.3206   33.1464 C.3     1  UNL1        0.0326
     11 C          18.1251   40.8534   33.7542 C.ar    1  UNL1       -0.0040
     12 C          18.5867   41.4261   34.9234 C.ar    1  UNL1       -0.0028
     13 C          19.7800   41.0022   35.4782 C.ar    1  UNL1       -0.0002
     14 C          20.5117   39.9995   34.8685 C.ar    1  UNL1        0.0015
     15 C          20.0525   39.4191   33.7025 C.ar    1  UNL1        0.0190
     16 C          18.8546   39.8431   33.1427 C.ar    1  UNL1        0.0826
     17 C          25.2619   37.2002   29.9203 C.3     1  UNL1        0.2846
     18 O          25.9925   38.4492   30.0405 O.3     1  UNL1       -0.4286
     19 C          26.1312   39.1875   28.9205 C.2     1  UNL1        0.3773
     20 O          26.6597   38.7066   27.9368 O.2     1  UNL1       -0.2414
     21 C          25.6440   40.5721   28.8890 C.ar    1  UNL1        0.2205
     22 C          26.3642   41.6633   29.2596 C.ar    1  UNL1        0.0473
     23 C          25.4843   42.8146   29.0640 C.ar    1  UNL1        0.0378
     24 C          25.6249   44.1913   29.2564 C.ar    1  UNL1        0.0031
     25 C          24.5797   45.0246   28.9743 C.ar    1  UNL1        0.0002
     26 C          23.3840   44.5135   28.4875 C.ar    1  UNL1        0.0031
     27 C          23.2251   43.1589   28.2909 C.ar    1  UNL1        0.0375
     28 C          24.2727   42.2904   28.5762 C.ar    1  UNL1        0.1456
     29 O          24.4131   40.9536   28.4882 O.2     1  UNL1       -0.4469
@<TRIPOS>BOND
     1    10    11    1
     2    11    16   ar
     3    11    12   ar
     4    12    13   ar
     5    13    14   ar
     6    14    15   ar
     7    15    16   ar
     8    16     5    1
     9     5     9   ar
    10     5     6   ar
    11     6     7   ar
    12     6     4    1
    13     7     8   ar
    14     8     9   ar
    15     4     3    1
    16     3     1    1
    17     1     2    3
    18     2    17    1
    19    17    18    1
    20    18    19    1
    21    19    20    2
    22    19    21    1
    23    21    29   ar
    24    21    22   ar
    25    22    23   ar
    26    23    28   ar
    27    23    24   ar
    28    24    25   ar
    29    25    26   ar
    30    26    27   ar
    31    27    28   ar
    32    28    29   ar
@<TRIPOS>MOLECULE
ZINC13155191
 30 32 0 0 0
SMALL
GASTEIGER

@<TRIPOS>ATOM
      1 N          16.5648   38.9027   30.9608 N.ar    1  UNL1       -0.2165
      2 C          16.8067   39.1686   32.2610 C.ar    1  UNL1        0.2763
      3 O          15.8894   39.3180   33.0473 O.2     1  UNL1       -0.2655
      4 C          18.2032   39.2731   32.7062 C.ar    1  UNL1        0.0593
      5 C          18.5580   39.5441   34.0240 C.ar    1  UNL1        0.0048
      6 C          19.8923   39.6266   34.3610 C.ar    1  UNL1        0.0002
      7 C          20.8793   39.4424   33.4018 C.ar    1  UNL1        0.0001
      8 C          20.5482   39.1730   32.0907 C.ar    1  UNL1        0.0019
      9 C          19.2082   39.0856   31.7294 C.ar    1  UNL1        0.0304
     10 C          18.7704   38.8023   30.3528 C.ar    1  UNL1        0.1764
     11 N          17.4872   38.7358   30.0903 N.ar    1  UNL1       -0.1602
     12 C          19.7631   38.5949   29.2816 C.2     1  UNL1        0.3612
     13 O          20.0749   39.5178   28.5554 O.2     1  UNL1       -0.2431
     14 O          20.3239   37.3819   29.1082 O.3     1  UNL1       -0.4393
     15 C          21.4007   37.2859   28.1389 C.3     1  UNL1        0.2377
     16 C          22.7022   37.6702   28.7941 C.ar    1  UNL1        0.0494
     17 C          23.0989   37.0432   29.9561 C.ar    1  UNL1        0.0118
     18 C          24.3082   37.3965   30.5592 C.ar    1  UNL1        0.0684
     19 C          25.1039   38.3917   29.9863 C.ar    1  UNL1        0.0126
     20 C          24.6946   39.0157   28.8276 C.ar    1  UNL1        0.0301
     21 C          23.4955   38.6573   28.2304 C.ar    1  UNL1        0.1396
     22 F          23.0992   39.2723   27.0947 F       1  UNL1       -0.2044
     23 C          24.7283   36.7447   31.7631 C.1     1  UNL1        0.1004
     24 N          25.0616   36.2276   32.7181 N.1     1  UNL1       -0.1908
     25 C          15.1708   38.7995   30.5221 C.3     1  UNL1        0.1307
     26 C          15.1278   38.3380   29.0640 C.3     1  UNL1        0.0265
     27 C          14.1443   37.1742   28.9263 C.3     1  UNL1        0.0021
     28 C          13.3965   37.2930   27.5968 C.3     1  UNL1        0.0001
     29 C          11.2649   36.2937   26.7600 C.3     1  UNL1        0.0000
     30 C          11.8918   37.1712   27.8453 C.3     1  UNL1        0.0000
@<TRIPOS>BOND
     1    29    30    1
     2    30    28    1
     3    28    27    1
     4    27    26    1
     5    26    25    1
     6    25     1    1
     7     1    11   ar
     8     1     2   ar
     9     2     3    2
    10     2     4   ar
    11     4     9   ar
    12     4     5   ar
    13     5     6   ar
    14     6     7   ar
    15     7     8   ar
    16     8     9   ar
    17     9    10   ar
    18    10    11   ar
    19    10    12    1
    20    12    13    2
    21    12    14    1
    22    14    15    1
    23    15    16    1
    24    16    21   ar
    25    16    17   ar
    26    17    18   ar
    27    18    19   ar
    28    18    23    1
    29    19    20   ar
    30    20    21   ar
    31    21    22    1
    32    23    24    3
@<TRIPOS>MOLECULE
ZINC31648262
 29 32 0 0 0
SMALL
GASTEIGER

@<TRIPOS>ATOM
      1 N          13.2789   38.8352   31.0078 N.ar    1  UNL1       -0.1862
      2 C          12.6574   38.2366   29.9606 C.ar    1  UNL1        0.2151
      3 N          11.3636   38.3977   30.1367 N.ar    1  UNL1       -0.1011
      4 N          11.1348   39.0529   31.2171 N.ar    1  UNL1       -0.0218
      5 N          12.2424   39.3501   31.8058 N.ar    1  UNL1       -0.0382
      6 C          17.3800   39.0799   31.7157 C.ar    1  UNL1       -0.0221
      7 C          16.4867   39.3256   32.7423 C.ar    1  UNL1       -0.0027
      8 C          15.1274   39.2506   32.5094 C.ar    1  UNL1        0.0190
      9 C          14.6583   38.9173   31.2459 C.ar    1  UNL1        0.0866
     10 C          15.5576   38.6660   30.2187 C.ar    1  UNL1        0.0190
     11 C          16.9158   38.7481   30.4562 C.ar    1  UNL1       -0.0027
     12 C          18.8625   39.1677   31.9718 C.3     1  UNL1        0.0264
     13 C          19.1281   39.0533   33.4743 C.3     1  UNL1        0.0047
     14 C          20.4302   40.4060   35.1226 C.3     1  UNL1        0.0000
     15 C          20.5010   39.6470   33.7960 C.3     1  UNL1        0.0003
     16 S          13.4360   37.4017   28.6182 S.3     1  UNL1       -0.0638
     17 C          11.9759   36.8557   27.6984 C.3     1  UNL1        0.1528
     18 C          11.8018   37.7177   26.4746 C.ar    1  UNL1        0.2478
     19 N          10.6679   38.1545   25.9819 N.ar    1  UNL1       -0.1938
     20 C          10.9991   38.8789   24.8983 C.ar    1  UNL1        0.1848
     21 N          12.2930   38.8402   24.7849 N.ar    1  UNL1       -0.0602
     22 O          12.7733   38.1781   25.6806 O.2     1  UNL1       -0.3364
     23 C          10.0447   39.5989   23.9809 C.3     1  UNL1        0.0955
     24 C          10.8069   40.5923   23.1423 C.ar    1  UNL1       -0.0145
     25 C          11.2432   41.7786   23.7019 C.ar    1  UNL1       -0.0038
     26 C          11.9466   42.6876   22.9339 C.ar    1  UNL1       -0.0003
     27 C          12.2047   42.4149   21.6035 C.ar    1  UNL1       -0.0000
     28 C          11.7639   41.2309   21.0425 C.ar    1  UNL1       -0.0003
     29 C          11.0650   40.3196   21.8119 C.ar    1  UNL1       -0.0038
@<TRIPOS>BOND
     1    14    15    1
     2    15    13    1
     3    13    12    1
     4    12     6    1
     5     6    11   ar
     6     6     7   ar
     7     7     8   ar
     8     8     9   ar
     9     9    10   ar
    10     9     1    1
    11    10    11   ar
    12     1     5   ar
    13     1     2   ar
    14     2     3   ar
    15     2    16    1
    16     3     4   ar
    17     4     5   ar
    18    16    17    1
    19    17    18    1
    20    18    22   ar
    21    18    19   ar
    22    19    20   ar
    23    20    21   ar
    24    20    23    1
    25    21    22   ar
    26    23    24    1
    27    24    29   ar
    28    24    25   ar
    29    25    26   ar
    30    26    27   ar
    31    27    28   ar
    32    28    29   ar
@<TRIPOS>MOLECULE
ZINC05803810
 27 29 0 0 0
SMALL
GASTEIGER

@<TRIPOS>ATOM
      1 C           6.0346   53.5005   40.7987 C.2     1  UNL1        0.3412
      2 O           5.9199   54.3669   41.6424 O.2     1  UNL1       -0.2449
      3 C           7.1933   52.5847   40.8332 C.ar    1  UNL1        0.0725
      4 C           8.4317   53.0015   40.3404 C.ar    1  UNL1        0.0061
      5 C           9.5094   52.1415   40.3760 C.ar    1  UNL1        0.0002
      6 C           9.3655   50.8682   40.8986 C.ar    1  UNL1       -0.0003
      7 C           8.1429   50.4507   41.3932 C.ar    1  UNL1       -0.0032
      8 C           7.0553   51.2988   41.3589 C.ar    1  UNL1       -0.0047
      9 C           5.7229   50.8405   41.8935 C.3     1  UNL1        0.0905
     10 S           5.6344   49.0339   41.8244 S.3     1  UNL1       -0.0843
     11 C           3.9505   48.8281   41.3480 C.2     1  UNL1        0.1276
     12 N           3.1862   49.7094   40.7818 N.2     1  UNL1       -0.2572
     13 C           1.8126   49.4236   40.4364 C.3     1  UNL1        0.1387
     14 C           1.3873   47.9873   40.8138 C.3     1  UNL1        0.0904
     15 S           2.9504   47.3671   41.5468 S.3     1  UNL1       -0.0871
     16 O           5.1054   53.3750   39.8315 O.3     1  UNL1       -0.4404
     17 C           3.7243   53.2377   40.2580 C.3     1  UNL1        0.2354
     18 C           2.4819   53.7939   36.7267 C.ar    1  UNL1        0.0754
     19 C           1.1322   53.4601   36.8574 C.ar    1  UNL1        0.0064
     20 C           0.6394   53.0601   38.0820 C.ar    1  UNL1        0.0000
     21 C           1.4803   52.9842   39.1785 C.ar    1  UNL1       -0.0007
     22 C           2.8173   53.3185   39.0573 C.ar    1  UNL1        0.0215
     23 C           3.3234   53.7201   37.8383 C.ar    1  UNL1        0.0057
     24 C           3.0168   54.2226   35.4182 C.2     1  UNL1        0.3413
     25 O           4.1251   54.7148   35.3469 O.2     1  UNL1       -0.2449
     26 C           2.8300   54.5861   33.0662 C.3     1  UNL1        0.2560
     27 O           2.2756   54.0678   34.3040 O.3     1  UNL1       -0.4413
@<TRIPOS>BOND
     1    26    27    1
     2    27    24    1
     3    24    25    2
     4    24    18    1
     5    18    23   ar
     6    18    19   ar
     7    19    20   ar
     8    20    21   ar
     9    21    22   ar
    10    22    23   ar
    11    22    17    1
    12    17    16    1
    13    16     1    1
    14     1     2    2
    15     1     3    1
    16     3     8   ar
    17     3     4   ar
    18     4     5   ar
    19     5     6   ar
    20     6     7   ar
    21     7     8   ar
    22     8     9    1
    23     9    10    1
    24    10    11    1
    25    11    15    1
    26    11    12    2
    27    12    13    1
    28    13    14    1
    29    14    15    1
@<TRIPOS>MOLECULE
ZINC01858979
 27 29 0 0 0
SMALL
GASTEIGER

@<TRIPOS>ATOM
      1 C          16.6861   38.8451   30.4164 C.ar    1  UNL1        0.1163
      2 C          16.7638   39.0859   31.7998 C.ar    1  UNL1        0.0876
      3 C          18.0270   39.1722   32.4122 C.ar    1  UNL1       -0.0131
      4 C          19.1452   39.0099   31.6350 C.ar    1  UNL1       -0.0073
      5 C          18.9925   38.7820   30.2578 C.ar    1  UNL1        0.0835
      6 N          17.7895   38.7048   29.7011 N.ar    1  UNL1       -0.2383
      7 C          20.5394   39.0777   32.1980 C.3     1  UNL1        0.0276
      8 C          20.5332   39.7533   33.5683 C.3     1  UNL1        0.0051
      9 C          19.4708   39.0735   34.4401 C.3     1  UNL1        0.0050
     10 C          18.0916   39.4362   33.8912 C.3     1  UNL1        0.0268
     11 C          20.1909   38.6189   29.4148 C.ar    1  UNL1        0.0468
     12 C          20.8529   37.4691   29.0666 C.ar    1  UNL1        0.0085
     13 C          21.9620   37.5637   28.2590 C.ar    1  UNL1        0.0075
     14 C          22.3680   38.7887   27.8315 C.ar    1  UNL1        0.0355
     15 S          21.1584   39.8666   28.5812 S.2     1  UNL1       -0.0849
     16 C          15.5705   39.2412   32.5760 C.1     1  UNL1        0.1021
     17 N          14.6239   39.3643   33.1918 N.1     1  UNL1       -0.1908
     18 S          15.1121   38.7304   29.6328 S.3     1  UNL1       -0.0863
     19 C          15.1380   36.9923   29.1283 C.3     1  UNL1        0.1284
     20 C          14.0067   36.7311   28.1676 C.2     1  UNL1        0.1731
     21 O          14.1039   35.8526   27.3449 O.2     1  UNL1       -0.2945
     22 C          12.7540   37.5663   28.2339 C.3     1  UNL1        0.1746
     23 C          11.8618   37.2269   27.0677 C.2     1  UNL1        0.3246
     24 O          11.0866   36.3037   27.1488 O.2     1  UNL1       -0.2496
     25 O          11.9284   37.9502   25.9390 O.3     1  UNL1       -0.4482
     26 C          10.5944   37.7583   23.9107 C.3     1  UNL1        0.0513
     27 C          10.6691   38.3337   25.3265 C.3     1  UNL1        0.2086
@<TRIPOS>BOND
     1    26    27    1
     2    27    25    1
     3    25    23    1
     4    23    24    2
     5    23    22    1
     6    22    20    1
     7    20    21    2
     8    20    19    1
     9    19    18    1
    10    18     1    1
    11     1     6   ar
    12     1     2   ar
    13     2     3   ar
    14     2    16    1
    15     3    10    1
    16     3     4   ar
    17     4     5   ar
    18     4     7    1
    19     5     6   ar
    20     5    11    1
    21    11    15   ar
    22    11    12   ar
    23    12    13   ar
    24    13    14   ar
    25    14    15   ar
    26     7     8    1
    27     8     9    1
    28     9    10    1
    29    16    17    3
@<TRIPOS>MOLECULE
ZINC10982210
 30 32 0 0 0
SMALL
GASTEIGER

@<TRIPOS>ATOM
      1 O          22.3685   38.5693   27.6613 O.3     1  UNL1       -0.4365
      2 C          21.2805   37.8726   28.0525 C.2     1  UNL1        0.3421
      3 O          20.7004   37.1544   27.2596 O.2     1  UNL1       -0.2449
      4 C          19.9110   38.9332   29.7127 C.2     1  UNL1        0.0441
      5 C          20.8152   37.9770   29.3834 C.2     1  UNL1        0.0850
      6 C          16.8164   39.4899   33.5474 C.3     1  UNL1        0.0727
      7 C          18.0790   39.2843   32.7509 C.ar    1  UNL1        0.1295
      8 C          19.3445   39.1160   33.2735 C.ar    1  UNL1        0.1089
      9 C          20.2177   38.9580   32.1686 C.ar    1  UNL1        0.0467
     10 C          19.4447   39.0380   31.0464 C.ar    1  UNL1        0.1453
     11 O          18.1638   39.2392   31.4186 O.2     1  UNL1       -0.4575
     12 C          19.7153   39.1034   34.6997 C.2     1  UNL1        0.3441
     13 O          19.5000   38.1162   35.3748 O.2     1  UNL1       -0.2448
     14 O          20.2931   40.1866   35.2551 O.3     1  UNL1       -0.4413
     15 C          19.6644   41.4711   35.0035 C.3     1  UNL1        0.2560
     16 C          23.4151   38.7308   28.6208 C.3     1  UNL1        0.2521
     17 C          23.9669   40.1303   28.5316 C.ar    1  UNL1        0.0249
     18 C          23.1914   41.1468   28.0059 C.ar    1  UNL1       -0.0004
     19 C          23.6959   42.4314   27.9281 C.ar    1  UNL1       -0.0002
     20 C          24.9793   42.6976   28.3672 C.ar    1  UNL1       -0.0000
     21 C          25.7566   41.6802   28.8884 C.ar    1  UNL1       -0.0002
     22 C          25.2504   40.3964   28.9703 C.ar    1  UNL1       -0.0004
     23 C          24.5136   37.7388   28.3378 C.2     1  UNL1        0.2172
     24 O          24.9973   37.6700   27.2280 O.2     1  UNL1       -0.2872
     25 C          24.9992   36.8533   29.4083 C.ar    1  UNL1        0.0387
     26 C          24.2826   36.7372   30.6036 C.ar    1  UNL1        0.0030
     27 C          24.7465   35.9088   31.6036 C.ar    1  UNL1        0.0001
     28 C          25.9126   35.1856   31.4226 C.ar    1  UNL1        0.0000
     29 C          26.6246   35.2910   30.2406 C.ar    1  UNL1        0.0001
     30 C          26.1764   36.1189   29.2330 C.ar    1  UNL1        0.0030
@<TRIPOS>BOND
     1     6     7    1
     2     7    11   ar
     3     7     8   ar
     4     8     9   ar
     5     8    12    1
     6     9    10   ar
     7    10    11   ar
     8    10     4    1
     9     4     5    2
    10     5     2    1
    11     2     3    2
    12     2     1    1
    13     1    16    1
    14    16    17    1
    15    16    23    1
    16    17    22   ar
    17    17    18   ar
    18    18    19   ar
    19    19    20   ar
    20    20    21   ar
    21    21    22   ar
    22    23    24    2
    23    23    25    1
    24    25    30   ar
    25    25    26   ar
    26    26    27   ar
    27    27    28   ar
    28    28    29   ar
    29    29    30   ar
    30    12    13    2
    31    12    14    1
    32    14    15    1
@<TRIPOS>MOLECULE
ZINC22216728
 29 30 0 0 0
SMALL
GASTEIGER

@<TRIPOS>ATOM
      1 C          22.9237   38.6679   28.9523 C.2     1  UNL1        0.0180
      2 C          22.0637   38.1271   28.0156 C.2     1  UNL1        0.1439
      3 N          25.5079   40.8906   27.8312 N.ar    1  UNL1       -0.3340
      4 C          26.2439   39.7484   27.9656 C.ar    1  UNL1        0.0371
      5 C          25.4472   38.7569   28.3970 C.ar    1  UNL1        0.0139
      6 C          24.1024   39.3344   28.5312 C.ar    1  UNL1        0.0136
      7 C          24.2233   40.6640   28.1611 C.ar    1  UNL1        0.0371
      8 C          23.1102   41.6795   28.1334 C.3     1  UNL1        0.0500
      9 C          27.7180   39.6215   27.6794 C.3     1  UNL1        0.0500
     10 C          26.0408   42.1801   27.3846 C.3     1  UNL1        0.1054
     11 C          26.4335   43.0191   28.6023 C.3     1  UNL1        0.0245
     12 C          25.0584   44.6564   29.8948 C.3     1  UNL1        0.0001
     13 C          25.7167   44.3696   28.5438 C.3     1  UNL1        0.0020
     14 C          22.4315   38.1097   26.6318 C.1     1  UNL1        0.1070
     15 N          22.7233   38.0959   25.5340 N.1     1  UNL1       -0.1906
     16 C          20.7732   37.5708   28.4391 C.2     1  UNL1        0.3514
     17 O          20.5452   36.3852   28.2940 O.2     1  UNL1       -0.2441
     18 O          19.8404   38.3744   28.9891 O.3     1  UNL1       -0.4364
     19 C          20.2003   39.0564   30.2194 C.3     1  UNL1        0.2770
     20 C          19.2387   38.6636   31.3112 C.2     1  UNL1        0.2193
     21 O          18.5456   37.6769   31.1828 O.2     1  UNL1       -0.2873
     22 C          19.1408   39.4767   32.5318 C.ar    1  UNL1        0.0681
     23 C          20.2711   39.6868   33.3298 C.ar    1  UNL1        0.0349
     24 C          20.1719   40.4553   34.4715 C.ar    1  UNL1        0.1404
     25 C          18.9538   41.0108   34.8349 C.ar    1  UNL1        0.0319
     26 C          17.8312   40.8042   34.0557 C.ar    1  UNL1        0.0320
     27 C          17.9142   40.0408   32.9059 C.ar    1  UNL1        0.1431
     28 F          16.8159   39.8397   32.1453 F       1  UNL1       -0.2041
     29 F          21.2631   40.6635   35.2402 F       1  UNL1       -0.2042
@<TRIPOS>BOND
     1    12    13    1
     2    13    11    1
     3    11    10    1
     4    10     3    1
     5     3     7   ar
     6     3     4   ar
     7     4     5   ar
     8     4     9    1
     9     5     6   ar
    10     6     7   ar
    11     6     1    1
    12     7     8    1
    13     1     2    2
    14     2    14    1
    15     2    16    1
    16    14    15    3
    17    16    17    2
    18    16    18    1
    19    18    19    1
    20    19    20    1
    21    20    21    2
    22    20    22    1
    23    22    27   ar
    24    22    23   ar
    25    23    24   ar
    26    24    25   ar
    27    24    29    1
    28    25    26   ar
    29    26    27   ar
    30    27    28    1
@<TRIPOS>MOLECULE
ZINC24416640
 30 32 0 0 0
SMALL
GASTEIGER

@<TRIPOS>ATOM
      1 N          13.5498   37.6447   29.4410 N.ar    1  UNL1       -0.2507
      2 C          14.5722   38.4253   29.8299 C.ar    1  UNL1        0.0574
      3 C          14.1160   39.2154   30.8696 C.ar    1  UNL1        0.0287
      4 C          12.7636   38.8673   31.0943 C.ar    1  UNL1        0.0800
      5 N          12.4377   37.9394   30.2373 N.ar    1  UNL1       -0.1737
      6 C          11.8565   39.4665   32.1380 C.3     1  UNL1        0.0540
      7 C          15.9598   38.4373   29.2422 C.3     1  UNL1        0.0518
      8 C          14.8920   40.2221   31.6062 C.2     1  UNL1        0.0090
      9 C          15.4001   39.9262   32.8233 C.2     1  UNL1        0.0820
     10 C          16.1479   40.8964   33.5332 C.2     1  UNL1        0.3418
     11 O          16.0356   42.0753   33.2537 O.2     1  UNL1       -0.2449
     12 O          16.9852   40.5137   34.5200 O.3     1  UNL1       -0.4368
     13 C          18.3346   40.9774   34.4420 C.3     1  UNL1        0.2769
     14 C          19.2607   39.8013   34.2682 C.2     1  UNL1        0.2170
     15 O          19.7055   39.2309   35.2413 O.2     1  UNL1       -0.2874
     16 C          19.6250   39.3449   32.9173 C.ar    1  UNL1        0.0384
     17 C          20.9419   39.4715   32.4640 C.ar    1  UNL1        0.0026
     18 C          21.2755   39.0411   31.1972 C.ar    1  UNL1       -0.0042
     19 C          20.3110   38.4851   30.3749 C.ar    1  UNL1       -0.0218
     20 C          19.0055   38.3564   30.8163 C.ar    1  UNL1       -0.0042
     21 C          18.6562   38.7820   32.0804 C.ar    1  UNL1        0.0026
     22 C          20.6840   38.0178   28.9916 C.3     1  UNL1        0.0310
     23 C          13.5923   36.6525   28.3641 C.3     1  UNL1        0.1534
     24 C           9.6056   37.9521   24.3880 C.3     1  UNL1        0.0310
     25 C          10.6450   37.6134   25.4252 C.ar    1  UNL1       -0.0219
     26 C          10.5185   36.4626   26.1804 C.ar    1  UNL1       -0.0045
     27 C          11.4721   36.1517   27.1317 C.ar    1  UNL1       -0.0027
     28 C          12.5526   36.9915   27.3273 C.ar    1  UNL1        0.0021
     29 C          12.6764   38.1450   26.5757 C.ar    1  UNL1       -0.0027
     30 C          11.7247   38.4540   25.6218 C.ar    1  UNL1       -0.0045
@<TRIPOS>BOND
     1    24    25    1
     2    25    30   ar
     3    25    26   ar
     4    26    27   ar
     5    27    28   ar
     6    28    29   ar
     7    28    23    1
     8    29    30   ar
     9    23     1    1
    10     1     5   ar
    11     1     2   ar
    12     2     3   ar
    13     2     7    1
    14     3     4   ar
    15     3     8    1
    16     4     5   ar
    17     4     6    1
    18     8     9    2
    19     9    10    1
    20    10    11    2
    21    10    12    1
    22    12    13    1
    23    13    14    1
    24    14    15    2
    25    14    16    1
    26    16    21   ar
    27    16    17   ar
    28    17    18   ar
    29    18    19   ar
    30    19    20   ar
    31    19    22    1
    32    20    21   ar
@<TRIPOS>MOLECULE
ZINC04797216
 28 30 0 0 0
SMALL
GASTEIGER

@<TRIPOS>ATOM
      1 C          22.3626   39.4523   28.2736 C.ar    1  UNL1        0.3385
      2 N          22.7219   40.7203   28.0644 N.ar    1  UNL1       -0.1733
      3 C          24.0146   40.8613   28.2930 C.ar    1  UNL1        0.1776
      4 N          24.5057   39.6371   28.6569 N.ar    1  UNL1       -0.1719
      5 N          23.4118   38.7564   28.6387 N.ar    1  UNL1       -0.1050
      6 C          25.7814   39.3374   28.9719 C.2     1  UNL1        0.2817
      7 O          26.6108   40.2215   29.0537 O.2     1  UNL1       -0.2651
      8 C          26.1712   37.9342   29.2174 C.ar    1  UNL1        0.0579
      9 C          26.5355   37.1102   28.1502 C.ar    1  UNL1        0.0045
     10 C          26.9044   35.8024   28.3875 C.ar    1  UNL1       -0.0041
     11 C          26.9027   35.3031   29.6780 C.ar    1  UNL1       -0.0228
     12 C          26.5370   36.1120   30.7394 C.ar    1  UNL1       -0.0041
     13 C          26.1718   37.4235   30.5172 C.ar    1  UNL1        0.0045
     14 C          27.3005   33.8713   29.9286 C.3     1  UNL1        0.0189
     15 C          27.0721   33.0488   28.6590 C.3     1  UNL1        0.0044
     16 C          28.7798   33.8130   30.3149 C.3     1  UNL1        0.0044
     17 C          26.4534   33.2984   31.0667 C.3     1  UNL1        0.0044
     18 C          24.7869   42.1057   28.1721 C.ar    1  UNL1        0.0655
     19 C          24.9556   43.1207   29.0968 C.ar    1  UNL1        0.0101
     20 C          25.7386   44.1964   28.7515 C.ar    1  UNL1        0.0076
     21 C          26.3185   44.2300   27.5224 C.ar    1  UNL1        0.0355
     22 S          25.7587   42.6982   26.7965 S.2     1  UNL1       -0.0833
     23 O          21.1058   38.9594   28.1299 O.3     1  UNL1       -0.4430
     24 C          20.6236   38.1003   29.1649 C.3     1  UNL1        0.2406
     25 C          19.4291   38.7581   29.8586 C.3     1  UNL1        0.1894
     26 O          18.9811   37.9239   30.9289 O.3     1  UNL1       -0.3498
     27 C          17.5445   39.3013   32.2998 C.3     1  UNL1        0.0346
     28 C          18.8954   38.5915   32.1894 C.3     1  UNL1        0.1424
@<TRIPOS>BOND
     1    27    28    1
     2    28    26    1
     3    26    25    1
     4    25    24    1
     5    24    23    1
     6    23     1    1
     7     1     5   ar
     8     1     2   ar
     9     2     3   ar
    10     3     4   ar
    11     3    18    1
    12     4     5   ar
    13     4     6   am
    14     6     7    2
    15     6     8    1
    16     8    13   ar
    17     8     9   ar
    18     9    10   ar
    19    10    11   ar
    20    11    12   ar
    21    11    14    1
    22    12    13   ar
    23    14    15    1
    24    14    16    1
    25    14    17    1
    26    18    22   ar
    27    18    19   ar
    28    19    20   ar
    29    20    21   ar
    30    21    22   ar
@<TRIPOS>MOLECULE
ZINC06636754
 28 29 0 0 0
SMALL
GASTEIGER

@<TRIPOS>ATOM
      1 C          11.0664   39.2596   23.2418 C.ar    1  UNL1        0.1222
      2 C          11.8833   39.7213   24.2589 C.ar    1  UNL1        0.0200
      3 C          11.9766   39.0219   25.4441 C.ar    1  UNL1        0.0045
      4 C          11.2444   37.8456   25.6163 C.ar    1  UNL1        0.0390
      5 C          10.4267   37.3822   24.5840 C.ar    1  UNL1        0.0045
      6 C          10.3378   38.0946   23.4062 C.ar    1  UNL1        0.0200
      7 S          10.9532   40.1591   21.7310 S.O2    1  UNL1        0.0633
      8 O          12.2789   40.2914   21.2367 O.2     1  UNL1       -0.1528
      9 O           9.9149   39.5524   20.9739 O.2     1  UNL1       -0.1528
     10 N          10.4340   41.6858   22.1079 N.3     1  UNL1       -0.1555
     11 C           8.7098   42.9590   23.2859 C.3     1  UNL1        0.0206
     12 C           9.8593   41.9592   23.4274 C.3     1  UNL1        0.0958
     13 C          10.5494   42.7630   21.1217 C.3     1  UNL1        0.0958
     14 C          11.8738   43.5014   21.3257 C.3     1  UNL1        0.0206
     15 C          11.3396   37.0905   26.8846 C.2     1  UNL1        0.1956
     16 O          10.8415   35.9833   26.9726 O.2     1  UNL1       -0.2866
     17 C          12.0320   37.6739   28.0326 C.2     1  UNL1        0.0420
     18 C          13.3504   37.4429   28.2150 C.2     1  UNL1        0.0033
     19 C          14.0470   38.0298   29.3700 C.ar    1  UNL1        0.0001
     20 C          13.3397   38.3329   30.5383 C.ar    1  UNL1       -0.0003
     21 C          14.0010   38.8780   31.6183 C.ar    1  UNL1       -0.0043
     22 C          15.3591   39.1357   31.5448 C.ar    1  UNL1       -0.0228
     23 C          16.0649   38.8441   30.3905 C.ar    1  UNL1       -0.0043
     24 C          15.4195   38.2934   29.3039 C.ar    1  UNL1       -0.0003
     25 C          16.0727   39.7375   32.7279 C.3     1  UNL1        0.0189
     26 C          15.7731   41.2364   32.7958 C.3     1  UNL1        0.0044
     27 C          15.5892   39.0622   34.0128 C.3     1  UNL1        0.0044
     28 C          17.5802   39.5250   32.5762 C.3     1  UNL1        0.0044
@<TRIPOS>BOND
     1    11    12    1
     2    12    10    1
     3    10    13    1
     4    10     7    1
     5    13    14    1
     6     7     8    2
     7     7     9    2
     8     7     1    1
     9     1     6   ar
    10     1     2   ar
    11     2     3   ar
    12     3     4   ar
    13     4     5   ar
    14     4    15    1
    15     5     6   ar
    16    15    16    2
    17    15    17    1
    18    17    18    2
    19    18    19    1
    20    19    24   ar
    21    19    20   ar
    22    20    21   ar
    23    21    22   ar
    24    22    23   ar
    25    22    25    1
    26    23    24   ar
    27    25    26    1
    28    25    27    1
    29    25    28    1
@<TRIPOS>MOLECULE
ZINC29334717
 30 32 0 0 0
SMALL
GASTEIGER

@<TRIPOS>ATOM
      1 C          19.6228   38.7140   31.0810 C.2     1  UNL1        0.1439
      2 C          20.0528   38.3426   29.8211 C.2     1  UNL1        0.0180
      3 C          21.4236   38.4548   29.4784 C.ar    1  UNL1        0.0140
      4 C          22.4560   37.4155   29.6026 C.ar    1  UNL1        0.0142
      5 C          23.6006   37.9621   29.1615 C.ar    1  UNL1        0.0414
      6 N          23.3636   39.2524   28.7746 N.ar    1  UNL1       -0.3135
      7 C          22.0647   39.5647   28.9517 C.ar    1  UNL1        0.0414
      8 C          21.4221   40.8907   28.6356 C.3     1  UNL1        0.0504
      9 C          24.9350   37.2645   29.1026 C.3     1  UNL1        0.0504
     10 C          24.3331   40.1244   28.2615 C.ar    1  UNL1        0.0634
     11 C          25.1428   40.8500   29.1251 C.ar    1  UNL1        0.0172
     12 C          26.1014   41.7044   28.6163 C.ar    1  UNL1       -0.0028
     13 C          26.2474   41.8462   27.2485 C.ar    1  UNL1       -0.0218
     14 C          25.4386   41.1291   26.3860 C.ar    1  UNL1       -0.0028
     15 C          24.4821   40.2689   26.8886 C.ar    1  UNL1        0.0172
     16 C          27.2898   42.7844   26.6968 C.3     1  UNL1        0.0310
     17 C          18.1880   38.7410   31.3884 C.2     1  UNL1        0.3515
     18 O          17.8063   39.1300   32.4754 O.2     1  UNL1       -0.2441
     19 O          17.2928   38.3345   30.4653 O.3     1  UNL1       -0.4346
     20 C          16.0664   39.1035   30.3529 C.3     1  UNL1        0.2957
     21 C          13.2512   37.5481   28.7580 C.ar    1  UNL1        0.1806
     22 N          13.7465   38.4652   29.6079 N.ar    1  UNL1       -0.1917
     23 C          15.0486   38.3143   29.5704 C.ar    1  UNL1        0.2810
     24 O          15.3002   37.3232   28.7100 O.2     1  UNL1       -0.3334
     25 N          14.2585   36.8983   28.2563 N.ar    1  UNL1       -0.0605
     26 C          11.7954   37.3164   28.4450 C.3     1  UNL1        0.0692
     27 C          11.0692   37.1045   26.0638 C.3     1  UNL1        0.0005
     28 C          11.6750   36.3611   27.2560 C.3     1  UNL1        0.0081
     29 C          20.5773   39.0725   32.0864 C.1     1  UNL1        0.1070
     30 N          21.3345   39.3571   32.8841 N.1     1  UNL1       -0.1906
@<TRIPOS>BOND
     1    27    28    1
     2    28    26    1
     3    26    21    1
     4    21    25   ar
     5    21    22   ar
     6    22    23   ar
     7    23    24   ar
     8    23    20    1
     9    24    25   ar
    10    20    19    1
    11    19    17    1
    12    17    18    2
    13    17     1    1
    14     1     2    2
    15     1    29    1
    16     2     3    1
    17     3     7   ar
    18     3     4   ar
    19     4     5   ar
    20     5     6   ar
    21     5     9    1
    22     6     7   ar
    23     6    10    1
    24     7     8    1
    25    10    15   ar
    26    10    11   ar
    27    11    12   ar
    28    12    13   ar
    29    13    14   ar
    30    13    16    1
    31    14    15   ar
    32    29    30    3
@<TRIPOS>MOLECULE
ZINC06349499
 30 32 0 0 0
SMALL
GASTEIGER

@<TRIPOS>ATOM
      1 C          13.9449   38.3997   30.0223 C.ar    1  UNL1        0.0346
      2 C          12.5598   38.2411   30.1342 C.ar    1  UNL1        0.0032
      3 C          11.8586   37.6162   29.1355 C.ar    1  UNL1        0.0065
      4 C          12.5294   37.1280   28.0103 C.ar    1  UNL1        0.0757
      5 C          13.9147   37.2812   27.9007 C.ar    1  UNL1        0.0065
      6 C          14.6157   37.9108   28.8966 C.ar    1  UNL1        0.0032
      7 C          16.3098   39.5879   32.5001 C.ar    1  UNL1        0.1463
      8 C          15.2686   40.4739   32.7357 C.ar    1  UNL1        0.0406
      9 C          14.2503   40.1455   31.8416 C.ar    1  UNL1        0.0406
     10 C          14.6987   39.0768   31.0937 C.ar    1  UNL1        0.1453
     11 O          15.9402   38.7597   31.5004 O.2     1  UNL1       -0.4535
     12 C          18.6960   39.1910   32.5095 C.2     1  UNL1        0.1468
     13 C          17.5394   39.5611   33.1807 C.2     1  UNL1        0.0543
     14 C          19.9801   39.1689   33.2182 C.2     1  UNL1        0.3511
     15 O          21.0205   39.1234   32.5901 O.2     1  UNL1       -0.2441
     16 O          20.0070   39.1989   34.5664 O.3     1  UNL1       -0.4450
     17 C          19.4636   41.3528   35.5642 C.3     1  UNL1        0.0513
     18 C          20.5817   40.3785   35.1881 C.3     1  UNL1        0.2089
     19 C          18.6370   38.8363   31.1233 C.1     1  UNL1        0.1071
     20 N          18.5902   38.5551   30.0238 N.1     1  UNL1       -0.1906
     21 C          11.7749   36.4502   26.9378 C.2     1  UNL1        0.3415
     22 O          12.2376   35.4645   26.3991 O.2     1  UNL1       -0.2449
     23 O          10.5729   36.9248   26.5562 O.3     1  UNL1       -0.4404
     24 C          10.2867   36.9271   25.1327 C.3     1  UNL1        0.2354
     25 C          10.3557   38.3383   24.6086 C.ar    1  UNL1        0.0213
     26 C          10.2064   39.4053   25.4747 C.ar    1  UNL1       -0.0007
     27 C          10.2751   40.6998   24.9949 C.ar    1  UNL1       -0.0002
     28 C          10.4821   40.9273   23.6472 C.ar    1  UNL1       -0.0000
     29 C          10.6259   39.8603   22.7801 C.ar    1  UNL1       -0.0002
     30 C          10.5629   38.5658   23.2609 C.ar    1  UNL1       -0.0007
@<TRIPOS>BOND
     1    17    18    1
     2    18    16    1
     3    16    14    1
     4    14    15    2
     5    14    12    1
     6    12    13    2
     7    12    19    1
     8    13     7    1
     9     7    11   ar
    10     7     8   ar
    11     8     9   ar
    12     9    10   ar
    13    10    11   ar
    14    10     1    1
    15     1     6   ar
    16     1     2   ar
    17     2     3   ar
    18     3     4   ar
    19     4     5   ar
    20     4    21    1
    21     5     6   ar
    22    21    22    2
    23    21    23    1
    24    23    24    1
    25    24    25    1
    26    25    30   ar
    27    25    26   ar
    28    26    27   ar
    29    27    28   ar
    30    28    29   ar
    31    29    30   ar
    32    19    20    3
@<TRIPOS>MOLECULE
ZINC04977707
 28 30 0 0 0
SMALL
GASTEIGER

@<TRIPOS>ATOM
      1 C          23.2151   39.1081   26.7993 C.3     1  UNL1        0.3167
      2 C          23.2684   40.3838   27.5999 C.2     1  UNL1        0.3620
      3 O          22.2776   40.7858   28.1626 O.2     1  UNL1       -0.2459
      4 O          24.4167   41.0734   27.6879 O.3     1  UNL1       -0.4497
      5 C          27.5051   41.3855   24.7250 C.3     1  UNL1        0.0001
      6 C          26.7068   41.6131   26.0102 C.3     1  UNL1        0.0036
      7 C          27.4045   42.6749   26.8627 C.3     1  UNL1        0.0002
      8 C          26.6061   42.9024   28.1479 C.3     1  UNL1        0.0036
      9 C          25.1955   43.3782   27.7946 C.3     1  UNL1        0.0402
     10 C          24.4978   42.3165   26.9420 C.3     1  UNL1        0.1688
     11 C          25.2962   42.0890   25.6568 C.3     1  UNL1        0.0436
     12 C          24.3971   43.6058   29.0797 C.3     1  UNL1        0.0035
     13 C          25.1196   44.6329   29.9538 C.3     1  UNL1        0.0001
     14 C          23.0022   44.1265   28.7281 C.3     1  UNL1        0.0001
     15 O          22.8193   38.0105   27.6635 O.3     1  UNL1       -0.4361
     16 C          21.5254   37.6541   27.6420 C.2     1  UNL1        0.3179
     17 O          20.8993   37.7139   26.6103 O.2     1  UNL1       -0.2501
     18 C          20.8536   37.1791   28.9046 C.3     1  UNL1        0.1164
     19 C          20.9501   38.2686   29.9745 C.3     1  UNL1        0.0642
     20 C          19.5796   38.5413   30.5388 C.ar    1  UNL1        0.0888
     21 N          18.4290   38.4873   29.9293 N.ar    1  UNL1       -0.2427
     22 C          17.2641   38.7567   30.5547 C.ar    1  UNL1        0.0875
     23 C          15.9503   38.7404   30.0360 C.ar    1  UNL1        0.0196
     24 C          14.8870   39.0448   30.8282 C.ar    1  UNL1        0.0016
     25 C          15.0475   39.3790   32.1659 C.ar    1  UNL1        0.0006
     26 C          16.3171   39.4056   32.7113 C.ar    1  UNL1        0.0080
     27 C          17.3974   39.1004   31.9194 C.ar    1  UNL1        0.0482
     28 S          19.1537   39.0025   32.1577 S.2     1  UNL1       -0.0708
@<TRIPOS>BOND
     1     5     6    1
     2     6    11    1
     3     6     7    1
     4     7     8    1
     5     8     9    1
     6     9    10    1
     7     9    12    1
     8    10    11    1
     9    10     4    1
    10     4     2    1
    11     2     3    2
    12     2     1    1
    13     1    15    1
    14    15    16    1
    15    16    17    2
    16    16    18    1
    17    18    19    1
    18    19    20    1
    19    20    28   ar
    20    20    21   ar
    21    21    22   ar
    22    22    27   ar
    23    22    23   ar
    24    23    24   ar
    25    24    25   ar
    26    25    26   ar
    27    26    27   ar
    28    27    28   ar
    29    12    13    1
    30    12    14    1
@<TRIPOS>MOLECULE
ZINC18268599
 28 30 0 0 0
SMALL
GASTEIGER

@<TRIPOS>ATOM
      1 C          22.0342   38.1013   28.3989 C.2     1  UNL1        0.0757
      2 C          21.9512   39.1874   27.5829 C.2     1  UNL1        0.0064
      3 C          23.0840   40.1162   27.4794 C.ar    1  UNL1        0.0003
      4 C          23.2820   41.0964   28.4593 C.ar    1  UNL1        0.0009
      5 C          24.3502   41.9609   28.3578 C.ar    1  UNL1        0.0114
      6 C          25.2245   41.8651   27.2869 C.ar    1  UNL1        0.0577
      7 C          25.0322   40.9010   26.3103 C.ar    1  UNL1        0.0114
      8 C          23.9681   40.0297   26.3972 C.ar    1  UNL1        0.0009
      9 CL         26.5681   42.9580   27.1685 Cl      1  UNL1       -0.0822
     10 C          23.3176   37.7663   29.0577 C.ar    1  UNL1        0.0064
     11 C          23.4449   37.8828   30.4420 C.ar    1  UNL1        0.0025
     12 C          24.6406   37.5640   31.0515 C.ar    1  UNL1        0.0296
     13 C          25.7177   37.1396   30.2899 C.ar    1  UNL1        0.1401
     14 C          25.5981   37.0277   28.9140 C.ar    1  UNL1        0.0296
     15 C          24.4049   37.3386   28.2955 C.ar    1  UNL1        0.0025
     16 F          26.8883   36.8336   30.8911 F       1  UNL1       -0.2042
     17 C          20.8500   37.2606   28.6262 C.2     1  UNL1        0.3416
     18 O          20.4833   36.4822   27.7676 O.2     1  UNL1       -0.2449
     19 O          20.1706   37.3529   29.7873 O.3     1  UNL1       -0.4369
     20 C          19.9042   38.6885   30.2907 C.3     1  UNL1        0.2752
     21 N          18.0398   39.1524   31.9683 N.ar    1  UNL1       -0.2138
     22 C          18.4716   38.7757   30.7503 C.ar    1  UNL1        0.2053
     23 N          17.4044   38.4941   30.0434 N.ar    1  UNL1       -0.1088
     24 N          16.3709   38.6926   30.7867 N.ar    1  UNL1       -0.0229
     25 N          16.7511   39.0935   31.9494 N.ar    1  UNL1       -0.0431
     26 C          18.8760   39.5567   33.1013 C.3     1  UNL1        0.1307
     27 C          19.2868   41.3869   34.7517 C.3     1  UNL1        0.0021
     28 C          18.2847   40.8099   33.7499 C.3     1  UNL1        0.0265
@<TRIPOS>BOND
     1    27    28    1
     2    28    26    1
     3    26    21    1
     4    21    25   ar
     5    21    22   ar
     6    22    23   ar
     7    22    20    1
     8    23    24   ar
     9    24    25   ar
    10    20    19    1
    11    19    17    1
    12    17    18    2
    13    17     1    1
    14     1     2    2
    15     1    10    1
    16     2     3    1
    17     3     8   ar
    18     3     4   ar
    19     4     5   ar
    20     5     6   ar
    21     6     7   ar
    22     6     9    1
    23     7     8   ar
    24    10    15   ar
    25    10    11   ar
    26    11    12   ar
    27    12    13   ar
    28    13    14   ar
    29    13    16    1
    30    14    15   ar
@<TRIPOS>MOLECULE
ZINC01987169
 26 28 0 0 0
SMALL
GASTEIGER

@<TRIPOS>ATOM
      1 C          19.3778   39.1566   31.4504 C.ar    1  UNL1        0.1105
      2 C          18.1664   39.2708   32.1930 C.ar    1  UNL1        0.0436
      3 C          16.8125   39.0903   31.6967 C.ar    1  UNL1       -0.0162
      4 C          15.8115   39.2527   32.5917 C.ar    1  UNL1        0.0048
      5 S          16.6147   39.6478   34.1250 S.2     1  UNL1       -0.0726
      6 C          18.2871   39.5965   33.5675 C.ar    1  UNL1        0.1138
      7 N          19.4451   39.7912   34.1669 N.ar    1  UNL1       -0.2173
      8 C          20.5347   39.6696   33.4181 C.ar    1  UNL1        0.1998
      9 N          20.5006   39.3700   32.1353 N.ar    1  UNL1       -0.2176
     10 C          14.3406   39.1248   32.3405 C.3     1  UNL1        0.0327
     11 C          14.1022   39.1420   30.8240 C.3     1  UNL1        0.0052
     12 C          15.0852   38.1714   30.1628 C.3     1  UNL1        0.0050
     13 C          16.5040   38.7345   30.2446 C.3     1  UNL1        0.0267
     14 C          12.6661   38.7070   30.5250 C.3     1  UNL1        0.0004
     15 S          19.3896   38.7588   29.7339 S.3     1  UNL1       -0.0844
     16 C          21.1140   38.2431   29.5426 C.3     1  UNL1        0.1518
     17 C          21.1801   40.5286   28.5352 C.3     1  UNL1        0.0015
     18 C          21.9892   39.4726   29.2911 C.3     1  UNL1        0.0225
     19 C          21.2289   37.2975   28.3748 C.2     1  UNL1        0.3271
     20 O          20.3165   36.5509   28.1099 O.2     1  UNL1       -0.2492
     21 O          22.3447   37.2845   27.6289 O.3     1  UNL1       -0.4452
     22 C          22.2091   37.6609   26.2331 C.3     1  UNL1        0.2404
     23 C          23.5355   38.2315   25.7275 C.3     1  UNL1        0.1894
     24 O          23.3081   38.9759   24.5291 O.3     1  UNL1       -0.3498
     25 C          24.1285   40.1390   24.4027 C.3     1  UNL1        0.1424
     26 C          24.4905   40.6616   25.7944 C.3     1  UNL1        0.0346
@<TRIPOS>BOND
     1    17    18    1
     2    18    16    1
     3    16    19    1
     4    16    15    1
     5    19    20    2
     6    19    21    1
     7    21    22    1
     8    22    23    1
     9    23    24    1
    10    24    25    1
    11    25    26    1
    12    15     1    1
    13     1     9   ar
    14     1     2   ar
    15     2     6   ar
    16     2     3   ar
    17     3    13    1
    18     3     4   ar
    19     4     5   ar
    20     4    10    1
    21     5     6   ar
    22     6     7   ar
    23     7     8   ar
    24     8     9   ar
    25    10    11    1
    26    11    12    1
    27    11    14    1
    28    12    13    1
@<TRIPOS>MOLECULE
ZINC08164040
 29 32 0 0 0
SMALL
GASTEIGER

@<TRIPOS>ATOM
      1 C          20.3973   38.0074   29.3581 C.ar    1  UNL1        0.2062
      2 N          20.9838   38.6755   28.3386 N.ar    1  UNL1       -0.1899
      3 C          21.2166   37.7754   27.4161 C.ar    1  UNL1        0.2480
      4 O          20.7698   36.6060   27.8848 O.2     1  UNL1       -0.3361
      5 N          20.3096   36.7525   28.9974 N.ar    1  UNL1       -0.0559
      6 C          19.0856   39.6734   33.0483 C.ar    1  UNL1        0.1418
      7 C          20.4442   39.5399   32.7885 C.ar    1  UNL1        0.0372
      8 C          20.8718   39.0007   31.5944 C.ar    1  UNL1        0.0093
      9 C          19.9402   38.5877   30.6431 C.ar    1  UNL1        0.0732
     10 C          18.5726   38.7280   30.9025 C.ar    1  UNL1        0.1447
     11 C          18.1520   39.2651   32.1076 C.ar    1  UNL1        0.0739
     12 C          19.6848   40.6387   35.1360 C.3     1  UNL1        0.2525
     13 O          18.6707   40.2056   34.2271 O.3     1  UNL1       -0.4713
     14 O          17.6601   38.3328   29.9778 O.3     1  UNL1       -0.4712
     15 C          16.3029   38.7223   30.1979 C.3     1  UNL1        0.2525
     16 C          21.8615   38.0145   26.0753 C.3     1  UNL1        0.1527
     17 S          23.6382   37.6899   26.1937 S.3     1  UNL1       -0.0673
     18 C          24.1897   39.2359   26.8344 C.ar    1  UNL1        0.1720
     19 N          24.0150   40.3974   26.2533 N.ar    1  UNL1       -0.2211
     20 C          24.5634   41.3774   27.0181 C.ar    1  UNL1        0.0992
     21 C          24.6566   42.7645   26.8790 C.ar    1  UNL1        0.0206
     22 C          25.2936   43.5079   27.8472 C.ar    1  UNL1        0.0016
     23 C          25.8351   42.8910   28.9653 C.ar    1  UNL1        0.0016
     24 C          25.7471   41.5228   29.1201 C.ar    1  UNL1        0.0188
     25 C          25.1136   40.7580   28.1525 C.ar    1  UNL1        0.0795
     26 N          24.8633   39.4028   28.0114 N.ar    1  UNL1       -0.3023
     27 C          25.2490   38.3457   28.9494 C.3     1  UNL1        0.1344
     28 C          24.1580   38.1586   29.9719 C.2     1  UNL1       -0.0017
     29 C          23.8597   36.9566   30.3991 C.2     1  UNL1       -0.0029
@<TRIPOS>BOND
     1    12    13    1
     2    13     6    1
     3     6    11   ar
     4     6     7   ar
     5     7     8   ar
     6     8     9   ar
     7     9    10   ar
     8     9     1    1
     9    10    11   ar
    10    10    14    1
    11    14    15    1
    12     1     5   ar
    13     1     2   ar
    14     2     3   ar
    15     3     4   ar
    16     3    16    1
    17     4     5   ar
    18    16    17    1
    19    17    18    1
    20    18    26   ar
    21    18    19   ar
    22    19    20   ar
    23    20    25   ar
    24    20    21   ar
    25    21    22   ar
    26    22    23   ar
    27    23    24   ar
    28    24    25   ar
    29    25    26   ar
    30    26    27    1
    31    27    28    1
    32    28    29    2
@<TRIPOS>MOLECULE
ZINC04459282
 30 32 0 0 0
SMALL
GASTEIGER

@<TRIPOS>ATOM
      1 N          25.9006   37.7797   28.4300 N.am    1  UNL1       -0.2721
      2 C          25.3234   38.7665   29.1439 C.2     1  UNL1        0.2493
      3 O          25.9579   39.3454   30.0039 O.2     1  UNL1       -0.2699
      4 C          23.9186   39.1448   28.8808 C.ar    1  UNL1        0.0552
      5 C          23.6006   40.4571   28.5263 C.ar    1  UNL1        0.0046
      6 C          22.2879   40.8035   28.2826 C.ar    1  UNL1        0.0018
      7 C          21.2872   39.8537   28.3892 C.ar    1  UNL1        0.0241
      8 C          21.5949   38.5530   28.7457 C.ar    1  UNL1        0.1430
      9 C          22.9046   38.1917   28.9862 C.ar    1  UNL1        0.0286
     10 N          20.5173   37.5451   28.8638 N.pl3   1  UNL1        0.0577
     11 O          19.6778   37.6511   29.7400 O.2     1  UNL1       -0.1261
     12 O          20.4701   36.6099   28.0850 O.2     1  UNL1       -0.1261
     13 C          25.4056   37.4601   27.0887 C.3     1  UNL1        0.0760
     14 C          26.1678   36.2530   26.5381 C.3     1  UNL1        0.0215
     15 C          26.8506   38.4208   25.2911 C.3     1  UNL1        0.0017
     16 C          25.6192   38.6620   26.1664 C.3     1  UNL1        0.0182
     17 C          24.3888   38.8465   25.2759 C.3     1  UNL1        0.0017
     18 C          27.0228   37.0265   28.9954 C.3     1  UNL1        0.1374
     19 C          26.4975   35.9719   29.9350 C.ar    1  UNL1        0.0576
     20 C          25.4373   36.1036   30.7579 C.ar    1  UNL1        0.0160
     21 C          25.2921   34.8885   31.4561 C.ar    1  UNL1        0.0199
     22 C          26.2691   34.0607   31.0334 C.ar    1  UNL1        0.0760
     23 N          27.0086   34.7181   30.0953 N.ar    1  UNL1       -0.3238
     24 C          28.1638   34.1694   29.3808 C.3     1  UNL1        0.1325
     25 C          27.7307   32.9789   28.5648 C.ar    1  UNL1        0.0004
     26 C          27.4774   33.1224   27.2135 C.ar    1  UNL1       -0.0024
     27 C          27.0847   32.0293   26.4639 C.ar    1  UNL1       -0.0003
     28 C          26.9353   30.7949   27.0678 C.ar    1  UNL1       -0.0000
     29 C          27.1835   30.6525   28.4202 C.ar    1  UNL1       -0.0003
     30 C          27.5812   31.7444   29.1687 C.ar    1  UNL1       -0.0024
@<TRIPOS>BOND
     1    15    16    1
     2    16    17    1
     3    16    13    1
     4    13    14    1
     5    13     1    1
     6     1    18    1
     7     1     2   am
     8    18    19    1
     9    19    23   ar
    10    19    20   ar
    11    20    21   ar
    12    21    22   ar
    13    22    23   ar
    14    23    24    1
    15    24    25    1
    16    25    30   ar
    17    25    26   ar
    18    26    27   ar
    19    27    28   ar
    20    28    29   ar
    21    29    30   ar
    22     2     3    2
    23     2     4    1
    24     4     9   ar
    25     4     5   ar
    26     5     6   ar
    27     6     7   ar
    28     7     8   ar
    29     8     9   ar
    30     8    10    1
    31    10    11    2
    32    10    12    2
@<TRIPOS>MOLECULE
ZINC25492909
 27 29 0 0 0
SMALL
GASTEIGER

@<TRIPOS>ATOM
      1 C          23.3905   39.3881   27.5908 C.ar    1  UNL1        0.1612
      2 C          23.3219   38.5604   26.4894 C.ar    1  UNL1        0.1251
      3 N          23.8452   39.2098   25.4530 N.ar    1  UNL1       -0.2190
      4 C          24.2545   40.4051   25.8307 C.ar    1  UNL1        0.1754
      5 N          23.9934   40.5650   27.1557 N.ar    1  UNL1       -0.2800
      6 C          24.2767   41.6965   27.9332 C.ar    1  UNL1        0.0662
      7 C          25.5073   41.8154   28.5650 C.ar    1  UNL1        0.0199
      8 C          25.7865   42.9331   29.3267 C.ar    1  UNL1        0.0311
      9 C          24.8359   43.9300   29.4690 C.ar    1  UNL1        0.1402
     10 C          23.6060   43.8109   28.8440 C.ar    1  UNL1        0.0311
     11 C          23.3250   42.6971   28.0772 C.ar    1  UNL1        0.0199
     12 F          25.1091   45.0205   30.2184 F       1  UNL1       -0.2042
     13 C          22.9427   39.0966   28.9030 C.2     1  UNL1        0.3597
     14 O          23.6157   38.3935   29.6335 O.2     1  UNL1       -0.2432
     15 O          21.7696   39.5987   29.3428 O.3     1  UNL1       -0.4358
     16 C          21.1944   38.9860   30.4985 C.3     1  UNL1        0.2775
     17 C          19.8651   38.3761   30.1347 C.2     1  UNL1        0.2229
     18 O          19.7864   37.6047   29.2001 O.2     1  UNL1       -0.2869
     19 C          16.8592   39.4029   32.6688 C.ar    1  UNL1        0.0074
     20 C          16.4469   39.0632   31.4171 C.ar    1  UNL1        0.0028
     21 C          17.3783   38.6994   30.4808 C.ar    1  UNL1        0.0096
     22 C          18.7110   38.7017   30.8808 C.ar    1  UNL1        0.0676
     23 S          18.5815   39.2244   32.5818 S.2     1  UNL1       -0.0883
     24 C          15.9317   41.3632   33.8714 C.3     1  UNL1        0.0056
     25 C          16.0217   39.8360   33.8444 C.3     1  UNL1        0.0330
     26 S          25.0168   41.6023   24.7866 S.3     1  UNL1       -0.0761
     27 C          26.1666   40.5402   23.8778 C.3     1  UNL1        0.0772
@<TRIPOS>BOND
     1    24    25    1
     2    25    19    1
     3    19    23   ar
     4    19    20   ar
     5    20    21   ar
     6    21    22   ar
     7    22    23   ar
     8    22    17    1
     9    17    18    2
    10    17    16    1
    11    16    15    1
    12    15    13    1
    13    13    14    2
    14    13     1    1
    15     1     5   ar
    16     1     2   ar
    17     2     3   ar
    18     3     4   ar
    19     4     5   ar
    20     4    26    1
    21     5     6    1
    22     6    11   ar
    23     6     7   ar
    24     7     8   ar
    25     8     9   ar
    26     9    10   ar
    27     9    12    1
    28    10    11   ar
    29    26    27    1
@<TRIPOS>MOLECULE
ZINC25037466
 30 31 0 0 0
SMALL
GASTEIGER

@<TRIPOS>ATOM
      1 C          21.0157   37.0445   28.7864 C.2     1  UNL1        0.3424
      2 O          20.4081   36.5275   27.8703 O.2     1  UNL1       -0.2449
      3 C          22.4687   37.2794   28.6693 C.ar    1  UNL1        0.0875
      4 C          23.3166   36.9794   29.7379 C.ar    1  UNL1        0.0272
      5 C          24.6725   37.2007   29.6216 C.ar    1  UNL1        0.1225
      6 C          25.1944   37.7241   28.4511 C.ar    1  UNL1        0.0208
      7 C          24.3629   38.0190   27.3864 C.ar    1  UNL1        0.0130
      8 C          23.0023   37.8025   27.4883 C.ar    1  UNL1        0.0640
      9 CL         21.9585   38.1788   26.1531 Cl      1  UNL1       -0.0820
     10 S          25.7431   36.8233   30.9691 S.O2    1  UNL1        0.0633
     11 O          24.9229   36.7304   32.1258 O.2     1  UNL1       -0.1528
     12 O          26.8385   37.7243   30.8822 O.2     1  UNL1       -0.1528
     13 N          26.3541   35.3079   30.6994 N.3     1  UNL1       -0.1554
     14 C          25.8221   34.1611   31.4396 C.3     1  UNL1        0.1148
     15 C          27.4267   35.1142   29.7204 C.3     1  UNL1        0.0797
     16 C          28.6969   34.6556   30.4396 C.3     1  UNL1        0.0192
     17 C          27.0039   34.0512   28.7043 C.3     1  UNL1        0.0192
     18 O          20.3638   37.4034   29.9094 O.3     1  UNL1       -0.4412
     19 C          19.5715   38.6187   29.8518 C.3     1  UNL1        0.2300
     20 C          20.4634   39.7899   29.4351 C.3     1  UNL1        0.0560
     21 C          18.9787   38.8968   31.2091 C.2     1  UNL1        0.2128
     22 O          19.7041   39.0312   32.1714 O.2     1  UNL1       -0.2875
     23 C          14.7729   39.2092   31.6635 C.ar    1  UNL1       -0.0222
     24 C          15.3074   38.8326   30.4435 C.ar    1  UNL1       -0.0042
     25 C          16.6735   38.7289   30.2879 C.ar    1  UNL1        0.0026
     26 C          17.5195   39.0055   31.3667 C.ar    1  UNL1        0.0383
     27 C          16.9715   39.3803   32.5975 C.ar    1  UNL1        0.0026
     28 C          15.6035   39.4850   32.7356 C.ar    1  UNL1       -0.0042
     29 C          12.5928   38.2520   30.9705 C.3     1  UNL1        0.0050
     30 C          13.2787   39.3200   31.8248 C.3     1  UNL1        0.0264
@<TRIPOS>BOND
     1    29    30    1
     2    30    23    1
     3    23    28   ar
     4    23    24   ar
     5    24    25   ar
     6    25    26   ar
     7    26    27   ar
     8    26    21    1
     9    27    28   ar
    10    21    22    2
    11    21    19    1
    12    19    20    1
    13    19    18    1
    14    18     1    1
    15     1     2    2
    16     1     3    1
    17     3     8   ar
    18     3     4   ar
    19     4     5   ar
    20     5     6   ar
    21     5    10    1
    22     6     7   ar
    23     7     8   ar
    24     8     9    1
    25    10    11    2
    26    10    12    2
    27    10    13    1
    28    13    14    1
    29    13    15    1
    30    15    16    1
    31    15    17    1
@<TRIPOS>MOLECULE
ZINC24139453
 33 35 0 0 0
SMALL
GASTEIGER

@<TRIPOS>ATOM
      1 C          25.7088   40.5882   25.2720 C.3     1  UNL1        0.0062
      2 C          25.0004   41.0665   26.5238 C.2     1  UNL1        0.2148
      3 O          24.6052   42.1885   26.7581 O.2     1  UNL1       -0.2759
      4 N          24.9004   39.9851   27.3217 N.am    1  UNL1       -0.2374
      5 C          25.4417   38.9012   26.7539 C.2     1  UNL1        0.1382
      6 O          25.4720   37.8064   27.2809 O.2     1  UNL1       -0.2967
      7 N          25.9481   39.1578   25.5306 N.am    1  UNL1       -0.6092
      8 C          24.8279   40.7681   24.0626 C.ar    1  UNL1       -0.0331
      9 C          23.8989   39.7985   23.7343 C.ar    1  UNL1       -0.0031
     10 C          23.0872   39.9646   22.6283 C.ar    1  UNL1        0.0293
     11 C          23.2118   41.0980   21.8427 C.ar    1  UNL1        0.1401
     12 C          24.1462   42.0661   22.1695 C.ar    1  UNL1        0.0293
     13 C          24.9533   41.9002   23.2791 C.ar    1  UNL1       -0.0031
     14 F          22.4221   41.2593   20.7586 F       1  UNL1       -0.2042
     15 C          27.0336   41.3306   25.0862 C.3     1  UNL1       -0.0074
     16 C          28.1228   40.3362   24.6793 C.3     1  UNL1       -0.0008
     17 C          27.8130   39.6014   22.3115 C.3     1  UNL1       -0.0000
     18 C          28.5320   40.5936   23.2277 C.3     1  UNL1       -0.0000
     19 C          24.2769   39.9952   28.6473 C.3     1  UNL1        0.1843
     20 C          22.8765   39.4474   28.5480 C.2     1  UNL1        0.2465
     21 O          22.1442   39.8135   27.6533 O.2     1  UNL1       -0.2730
     22 N          22.4380   38.5505   29.4533 N.am    1  UNL1       -0.2740
     23 C          23.3226   38.1082   30.5341 C.3     1  UNL1        0.0938
     24 C          23.8185   36.6910   30.2396 C.3     1  UNL1        0.0215
     25 C          24.7018   36.2099   31.3925 C.3     1  UNL1        0.0018
     26 C          21.0766   38.0179   29.3569 C.3     1  UNL1        0.1202
     27 C          20.2466   38.5515   30.4960 C.ar    1  UNL1       -0.0024
     28 C          18.8765   38.3680   30.4981 C.ar    1  UNL1       -0.0029
     29 C          18.1158   38.8532   31.5454 C.ar    1  UNL1       -0.0045
     30 C          18.7241   39.5307   32.5856 C.ar    1  UNL1       -0.0219
     31 C          20.0935   39.7191   32.5806 C.ar    1  UNL1       -0.0045
     32 C          20.8548   39.2294   31.5360 C.ar    1  UNL1       -0.0029
     33 C          17.8941   40.0643   33.7247 C.3     1  UNL1        0.0310
@<TRIPOS>UNITY_ATOM_ATTR
7 1
charge -1
@<TRIPOS>BOND
     1    17    18    1
     2    18    16    1
     3    16    15    1
     4    15     1    1
     5     1     7    1
     6     1     2    1
     7     1     8    1
     8     2     3    2
     9     2     4   am
    10     4     5   am
    11     4    19    1
    12     5     6    2
    13     5     7    1
    14    19    20    1
    15    20    21    2
    16    20    22   am
    17    22    23    1
    18    22    26    1
    19    23    24    1
    20    24    25    1
    21    26    27    1
    22    27    32   ar
    23    27    28   ar
    24    28    29   ar
    25    29    30   ar
    26    30    31   ar
    27    30    33    1
    28    31    32   ar
    29     8    13   ar
    30     8     9   ar
    31     9    10   ar
    32    10    11   ar
    33    11    12   ar
    34    11    14    1
    35    12    13   ar
@<TRIPOS>MOLECULE
ZINC17427990
 33 36 0 0 0
SMALL
GASTEIGER

@<TRIPOS>ATOM
      1 C          26.8908   38.0178   25.5129 C.3     1  UNL1        0.0582
      2 C          25.9678   36.8482   25.8862 C.3     1  UNL1        0.0073
      3 C          25.6491   36.9828   27.3879 C.3     1  UNL1        0.0005
      4 C          26.3127   38.2767   27.8561 C.3     1  UNL1        0.0007
      5 C          26.6903   39.0898   26.6197 C.3     1  UNL1        0.0066
      6 C          25.5769   40.0050   26.1294 C.3     1  UNL1        0.0004
      7 C          24.8201   40.7420   27.2081 C.3     1  UNL1        0.0003
      8 C          24.3913   39.8779   28.3835 C.3     1  UNL1        0.0038
      9 C          25.5384   39.0414   28.8930 C.3     1  UNL1        0.0046
     10 C          25.1347   38.1595   30.0690 C.3     1  UNL1        0.0254
     11 C          23.8331   37.4686   29.8097 C.2     1  UNL1       -0.0345
     12 C          22.9157   37.9361   29.0217 C.2     1  UNL1       -0.0455
     13 C          23.0722   39.1750   28.1852 C.3     1  UNL1        0.0151
     14 C          21.9259   40.1311   28.5657 C.3     1  UNL1        0.0074
     15 C          20.5755   39.4396   28.4194 C.3     1  UNL1        0.0444
     16 C          20.4833   38.2020   29.3091 C.3     1  UNL1        0.1763
     17 C          21.5862   37.2036   28.9452 C.3     1  UNL1        0.0654
     18 C          22.8657   38.7900   26.7228 C.3     1  UNL1        0.0040
     19 C          27.9912   39.8783   26.8458 C.3     1  UNL1        0.0004
     20 C          28.3269   37.5661   25.4780 C.2     1  UNL1        0.1615
     21 O          29.1259   38.1467   24.7832 O.2     1  UNL1       -0.2955
     22 C          28.7669   36.3893   26.3102 C.3     1  UNL1        0.1737
     23 C          28.8030   35.1518   25.4508 C.2     1  UNL1        0.3246
     24 O          28.6587   35.2426   24.2547 O.2     1  UNL1       -0.2496
     25 O          28.9954   33.9487   26.0142 O.3     1  UNL1       -0.4482
     26 C          27.0129   33.4229   27.3270 C.3     1  UNL1        0.0513
     27 C          27.8450   33.0663   26.0935 C.3     1  UNL1        0.2086
     28 O          20.6235   38.5910   30.7003 O.3     1  UNL1       -0.4215
     29 C          19.4947   38.6762   31.4274 C.2     1  UNL1        0.5117
     30 O          18.6101   37.8587   31.2732 O.2     1  UNL1       -0.2028
     31 O          19.3460   39.6670   32.3251 O.3     1  UNL1       -0.4181
     32 C          20.3421   39.7579   33.3777 C.3     1  UNL1        0.2122
     33 C          19.8473   39.0054   34.6145 C.3     1  UNL1        0.0514
@<TRIPOS>BOND
     1    26    27    1
     2    27    25    1
     3    25    23    1
     4    23    24    2
     5    23    22    1
     6    22    20    1
     7    20    21    2
     8    20     1    1
     9     1     5    1
    10     1     2    1
    11     2     3    1
    12     3     4    1
    13     4     9    1
    14     4     5    1
    15     5     6    1
    16     5    19    1
    17     6     7    1
    18     7     8    1
    19     8    13    1
    20     8     9    1
    21     9    10    1
    22    10    11    1
    23    11    12    2
    24    12    17    1
    25    12    13    1
    26    13    14    1
    27    13    18    1
    28    14    15    1
    29    15    16    1
    30    16    17    1
    31    16    28    1
    32    28    29    1
    33    29    30    2
    34    29    31    1
    35    31    32    1
    36    32    33    1
@<TRIPOS>MOLECULE
ZINC29302076
 32 34 0 0 0
SMALL
GASTEIGER

@<TRIPOS>ATOM
      1 C          27.2533   40.9136   26.1641 C.3     1  UNL1        0.1019
      2 C          26.1660   40.8605   27.2398 C.3     1  UNL1        0.0303
      3 C          24.8236   40.5168   26.5868 C.3     1  UNL1        0.0964
      4 N          24.9754   39.2724   25.8203 N.3     1  UNL1       -0.1555
      5 C          26.0499   39.1844   24.8220 C.3     1  UNL1        0.0964
      6 C          27.3786   39.5431   25.4948 C.3     1  UNL1        0.0303
      7 S          23.9546   37.9939   26.0762 S.O2    1  UNL1        0.0627
      8 O          22.7080   38.3464   25.4921 O.2     1  UNL1       -0.1528
      9 O          24.6677   36.8234   25.7014 O.2     1  UNL1       -0.1528
     10 C          23.6833   37.8837   27.8138 C.ar    1  UNL1        0.1137
     11 C          24.7064   37.4750   28.6486 C.ar    1  UNL1       -0.0075
     12 C          24.4948   37.3927   30.0122 C.ar    1  UNL1       -0.0248
     13 C          23.2573   37.7101   30.5399 C.ar    1  UNL1       -0.0091
     14 C          22.2326   38.1142   29.7046 C.ar    1  UNL1       -0.0248
     15 C          22.4455   38.2006   28.3414 C.ar    1  UNL1       -0.0075
     16 C          21.3284   38.6407   27.4308 C.3     1  UNL1        0.0321
     17 C          20.8834   38.4601   30.2799 C.3     1  UNL1        0.0307
     18 C          25.6121   36.9527   30.9228 C.3     1  UNL1        0.0307
     19 C          26.0540   37.1235   28.0726 C.3     1  UNL1        0.0321
     20 C          28.5691   41.2851   26.7980 C.2     1  UNL1        0.3170
     21 O          29.4444   40.4586   26.9015 O.2     1  UNL1       -0.2501
     22 O          28.7686   42.5339   27.2477 O.3     1  UNL1       -0.4381
     23 C          28.5591   43.6162   26.3026 C.3     1  UNL1        0.2953
     24 C          25.7195   45.2362   27.7861 C.ar    1  UNL1        0.1806
     25 N          26.7177   44.3380   27.8622 N.ar    1  UNL1       -0.1917
     26 C          27.3550   44.4209   26.7193 C.ar    1  UNL1        0.2809
     27 O          26.7322   45.3549   25.9941 O.2     1  UNL1       -0.3334
     28 N          25.7992   45.8089   26.6224 N.ar    1  UNL1       -0.0605
     29 C          24.6965   45.5253   28.8542 C.3     1  UNL1        0.0692
     30 C          24.0294   44.2187   29.2886 C.3     1  UNL1        0.0081
     31 C          22.3549   42.4853   28.6300 C.3     1  UNL1        0.0000
     32 C          23.1962   43.6624   28.1323 C.3     1  UNL1        0.0005
@<TRIPOS>BOND
     1    31    32    1
     2    32    30    1
     3    30    29    1
     4    29    24    1
     5    24    28   ar
     6    24    25   ar
     7    25    26   ar
     8    26    27   ar
     9    26    23    1
    10    27    28   ar
    11    23    22    1
    12    22    20    1
    13    20    21    2
    14    20     1    1
    15     1     6    1
    16     1     2    1
    17     2     3    1
    18     3     4    1
    19     4     5    1
    20     4     7    1
    21     5     6    1
    22     7     8    2
    23     7     9    2
    24     7    10    1
    25    10    15   ar
    26    10    11   ar
    27    11    12   ar
    28    11    19    1
    29    12    13   ar
    30    12    18    1
    31    13    14   ar
    32    14    15   ar
    33    14    17    1
    34    15    16    1
@<TRIPOS>MOLECULE
ZINC11718028
 31 34 0 0 0
SMALL
GASTEIGER

@<TRIPOS>ATOM
      1 C          23.1143   37.6684   29.3289 C.3     1  UNL1        0.2359
      2 C          24.8588   38.9874   28.1494 C.ar    1  UNL1        0.1047
      3 C          24.5539   37.9743   29.0047 C.ar    1  UNL1        0.0362
      4 C          25.5830   37.2170   29.5902 C.ar    1  UNL1        0.0337
      5 C          25.4668   36.1257   30.4932 C.ar    1  UNL1        0.1404
      6 C          26.5846   35.4900   30.9664 C.ar    1  UNL1        0.0297
      7 C          27.8601   35.8817   30.5789 C.ar    1  UNL1        0.0028
      8 C          28.0111   36.9337   29.6988 C.ar    1  UNL1        0.0066
      9 C          26.8966   37.5843   29.2136 C.ar    1  UNL1        0.0316
     10 S          26.6420   38.9426   28.0992 S.2     1  UNL1       -0.0807
     11 F          24.2434   35.7148   30.8927 F       1  UNL1       -0.2042
     12 C          23.9464   39.8938   27.4426 C.2     1  UNL1        0.3471
     13 O          23.6454   39.6729   26.2854 O.2     1  UNL1       -0.2443
     14 O          23.4416   40.9718   28.0765 O.3     1  UNL1       -0.4451
     15 C          24.1083   43.2467   27.5191 C.3     1  UNL1        0.0513
     16 C          24.3724   42.0339   28.4138 C.3     1  UNL1        0.2089
     17 O          22.4326   37.2197   28.1280 O.3     1  UNL1       -0.4421
     18 C          21.0942   37.3213   28.1129 C.2     1  UNL1        0.3427
     19 O          20.4165   36.3442   27.8988 O.2     1  UNL1       -0.2478
     20 C          20.4368   38.6541   28.3631 C.3     1  UNL1        0.2427
     21 N          19.9047   38.6876   29.7277 N.ar    1  UNL1       -0.1699
     22 C          20.3367   39.4774   30.7344 C.ar    1  UNL1        0.3705
     23 O          21.2386   40.2949   30.6849 O.2     1  UNL1       -0.2428
     24 N          19.5688   39.1838   31.8058 N.ar    1  UNL1       -0.1533
     25 N          18.6670   38.1860   31.4163 N.ar    1  UNL1       -0.0372
     26 N          18.8590   37.9023   30.2282 N.ar    1  UNL1       -0.0412
     27 C          19.6615   39.7658   33.0744 C.ar    1  UNL1        0.1185
     28 C          20.6118   39.5860   34.0337 C.ar    1  UNL1        0.0266
     29 C          20.4971   40.2799   35.2236 C.ar    1  UNL1        0.0091
     30 C          19.4393   41.1074   35.4041 C.ar    1  UNL1        0.0370
     31 S          18.5609   40.9314   33.8601 S.2     1  UNL1       -0.0673
@<TRIPOS>BOND
     1    15    16    1
     2    16    14    1
     3    14    12    1
     4    12    13    2
     5    12     2    1
     6     2    10   ar
     7     2     3   ar
     8     3     4   ar
     9     3     1    1
    10     4     9   ar
    11     4     5   ar
    12     5     6   ar
    13     5    11    1
    14     6     7   ar
    15     7     8   ar
    16     8     9   ar
    17     9    10   ar
    18     1    17    1
    19    17    18    1
    20    18    19    2
    21    18    20    1
    22    20    21    1
    23    21    26   ar
    24    21    22   ar
    25    22    23    2
    26    22    24   ar
    27    24    25   ar
    28    24    27    1
    29    25    26   ar
    30    27    31   ar
    31    27    28   ar
    32    28    29   ar
    33    29    30   ar
    34    30    31   ar
@<TRIPOS>MOLECULE
ZINC13793087
 32 34 0 0 0
SMALL
GASTEIGER

@<TRIPOS>ATOM
      1 C          22.8588   38.2877   30.0257 C.ar    1  UNL1        0.0953
      2 C          21.7438   38.3654   30.9404 C.ar    1  UNL1        0.0107
      3 C          20.6534   39.0330   30.5241 C.ar    1  UNL1        0.0131
      4 S          21.1054   39.5802   28.8909 S.2     1  UNL1       -0.0761
      5 C          22.7044   38.9225   28.7973 C.ar    1  UNL1        0.0837
      6 C          24.0914   37.5793   30.3751 C.2     1  UNL1        0.3429
      7 O          25.1685   38.1265   30.2330 O.2     1  UNL1       -0.2448
      8 O          24.0327   36.3198   30.8544 O.3     1  UNL1       -0.4454
      9 C          25.0836   35.6244   32.9382 C.3     1  UNL1        0.0513
     10 C          25.2513   35.7741   31.4248 C.3     1  UNL1        0.2089
     11 N          23.6083   39.0035   27.7509 N.am    1  UNL1       -0.3221
     12 H          23.7652   38.2211   27.1743 H       1  UNL1        0.1514
     13 C          24.2730   40.1534   27.5222 C.2     1  UNL1       -0.0367
     14 S          24.5611   40.6708   25.9159 S.2     1  UNL1       -0.0618
     15 N          24.7109   40.8960   28.5582 N.am    1  UNL1       -0.6259
     16 C          24.7066   42.2919   28.4691 C.ar    1  UNL1       -0.1006
     17 C          23.5030   42.9852   28.4602 C.ar    1  UNL1       -0.0233
     18 C          23.5022   44.3628   28.3658 C.ar    1  UNL1       -0.0060
     19 C          24.6983   45.0531   28.2913 C.ar    1  UNL1       -0.0203
     20 C          25.8981   44.3661   28.3004 C.ar    1  UNL1        0.0179
     21 C          25.9058   42.9877   28.3889 C.ar    1  UNL1        0.1198
     22 C          24.6937   46.5570   28.1937 C.3     1  UNL1        0.0311
     23 N          27.1908   42.2530   28.3984 N.pl3   1  UNL1        0.0558
     24 O          27.7176   41.9611   29.4571 O.2     1  UNL1       -0.1262
     25 O          27.7213   41.9403   27.3476 O.2     1  UNL1       -0.1262
     26 C          19.3601   39.2635   31.2625 C.3     1  UNL1        0.0592
     27 C          19.6425   39.4141   32.7351 C.ar    1  UNL1       -0.0173
     28 C          19.3087   38.3976   33.6104 C.ar    1  UNL1       -0.0039
     29 C          19.5720   38.5337   34.9606 C.ar    1  UNL1       -0.0003
     30 C          20.1597   39.6908   35.4369 C.ar    1  UNL1       -0.0000
     31 C          20.4885   40.7095   34.5624 C.ar    1  UNL1       -0.0003
     32 C          20.2300   40.5712   33.2115 C.ar    1  UNL1       -0.0039
@<TRIPOS>UNITY_ATOM_ATTR
15 1
charge -1
@<TRIPOS>BOND
     1     9    10    1
     2    10     8    1
     3     8     6    1
     4     6     7    2
     5     6     1    1
     6     1     5   ar
     7     1     2   ar
     8     2     3   ar
     9     3     4   ar
    10     3    26    1
    11     4     5   ar
    12     5    11    1
    13    11    13    1
    14    13    14    2
    15    13    15    1
    16    15    16    1
    17    16    21   ar
    18    16    17   ar
    19    17    18   ar
    20    18    19   ar
    21    19    20   ar
    22    19    22    1
    23    20    21   ar
    24    21    23    1
    25    23    24    2
    26    23    25    2
    27    26    27    1
    28    27    32   ar
    29    27    28   ar
    30    28    29   ar
    31    29    30   ar
    32    30    31   ar
    33    31    32   ar
    34    11    12    1
@<TRIPOS>MOLECULE
ZINC15163256
 32 34 0 0 0
SMALL
GASTEIGER

@<TRIPOS>ATOM
      1 C          18.2115   38.7644   30.9413 C.ar    1  UNL1        0.0789
      2 C          18.6848   39.0601   32.2183 C.ar    1  UNL1        0.0131
      3 C          20.0563   39.1666   32.4414 C.ar    1  UNL1        0.0789
      4 C          20.9505   38.9767   31.3855 C.ar    1  UNL1        0.0440
      5 C          20.4755   38.6828   30.1171 C.ar    1  UNL1        0.1476
      6 C          19.1123   38.5812   29.8898 C.ar    1  UNL1        0.0440
      7 C          16.7584   38.6507   30.6989 C.2     1  UNL1        0.3413
      8 O          16.3514   38.2197   29.6387 O.2     1  UNL1       -0.2449
      9 O          15.8849   39.0252   31.6536 O.3     1  UNL1       -0.4454
     10 C          15.6096   41.1878   32.7388 C.3     1  UNL1        0.0513
     11 C          15.2760   40.3358   31.5125 C.3     1  UNL1        0.2089
     12 C          20.5639   39.4793   33.7933 C.2     1  UNL1        0.3413
     13 O          21.7573   39.6098   33.9789 O.2     1  UNL1       -0.2449
     14 O          19.7033   39.6196   34.8201 O.3     1  UNL1       -0.4454
     15 C          19.6706   40.9122   35.4810 C.3     1  UNL1        0.2089
     16 C          18.7785   41.8684   34.6871 C.3     1  UNL1        0.0513
     17 O          21.3490   38.4992   29.0921 O.3     1  UNL1       -0.4360
     18 C          22.6603   38.3532   29.3932 C.ar    1  UNL1        0.2323
     19 C          23.5924   39.3828   29.0737 C.ar    1  UNL1        0.0741
     20 C          23.3702   40.6186   28.4514 C.ar    1  UNL1       -0.0030
     21 C          24.4140   41.4665   28.2368 C.ar    1  UNL1        0.1027
     22 S          25.8035   40.5641   28.9003 S.2     1  UNL1       -0.0617
     23 C          24.9353   39.1136   29.4390 C.ar    1  UNL1        0.1164
     24 N          25.2748   37.9873   30.0305 N.ar    1  UNL1       -0.2240
     25 C          24.3624   37.0730   30.2987 C.ar    1  UNL1        0.1432
     26 N          23.0914   37.2551   29.9871 N.ar    1  UNL1       -0.1964
     27 C          24.7789   35.7928   30.9758 C.3     1  UNL1        0.0738
     28 C          21.9795   41.0085   28.0213 C.3     1  UNL1        0.0320
     29 C          24.4006   42.7922   27.6094 C.2     1  UNL1        0.3471
     30 O          24.7368   42.9183   26.4476 O.2     1  UNL1       -0.2443
     31 O          24.0155   43.8713   28.3209 O.3     1  UNL1       -0.4410
     32 C          24.8822   44.2870   29.4091 C.3     1  UNL1        0.2560
@<TRIPOS>BOND
     1    10    11    1
     2    11     9    1
     3     9     7    1
     4     7     8    2
     5     7     1    1
     6     1     6   ar
     7     1     2   ar
     8     2     3   ar
     9     3     4   ar
    10     3    12    1
    11     4     5   ar
    12     5     6   ar
    13     5    17    1
    14    17    18    1
    15    18    26   ar
    16    18    19   ar
    17    19    23   ar
    18    19    20   ar
    19    20    21   ar
    20    20    28    1
    21    21    22   ar
    22    21    29    1
    23    22    23   ar
    24    23    24   ar
    25    24    25   ar
    26    25    26   ar
    27    25    27    1
    28    29    30    2
    29    29    31    1
    30    31    32    1
    31    12    13    2
    32    12    14    1
    33    14    15    1
    34    15    16    1
@<TRIPOS>MOLECULE
ZINC13882894
 30 31 0 0 0
SMALL
GASTEIGER

@<TRIPOS>ATOM
      1 C          23.5030   38.1732   28.2898 C.ar    1  UNL1        0.0555
      2 C          24.7335   37.5765   28.5159 C.ar    1  UNL1       -0.0047
      3 C          25.0743   37.2930   29.8114 C.ar    1  UNL1        0.0996
      4 S          23.6589   37.8750   30.7259 S.2     1  UNL1       -0.1056
      5 C          22.6963   38.4434   29.4013 C.ar    1  UNL1       -0.0851
      6 C          25.6636   37.2508   27.3758 C.3     1  UNL1        0.0319
      7 C          23.0610   38.5095   26.9317 C.2     1  UNL1        0.3396
      8 O          22.4557   37.6892   26.2688 O.2     1  UNL1       -0.2450
      9 O          23.3259   39.7281   26.4188 O.3     1  UNL1       -0.4455
     10 C          25.4018   40.8181   25.7610 C.3     1  UNL1        0.0513
     11 C          24.3294   39.7985   25.3718 C.3     1  UNL1        0.2089
     12 C          26.2973   36.6729   30.3191 C.2     1  UNL1        0.3467
     13 O          27.1883   37.3665   30.7719 O.2     1  UNL1       -0.2443
     14 O          26.4377   35.3313   30.2853 O.3     1  UNL1       -0.4523
     15 C          26.6133   34.6657   31.5376 C.3     1  UNL1        0.1366
     16 C          25.5091   35.0981   32.5043 C.3     1  UNL1        0.0437
     17 C          26.5414   33.1522   31.3252 C.3     1  UNL1        0.0437
     18 C          27.9776   35.0340   32.1241 C.3     1  UNL1        0.0437
     19 N          21.4455   39.0247   29.4348 N.am    1  UNL1       -0.6054
     20 C          20.3915   38.3291   29.9055 C.2     1  UNL1        0.0846
     21 O          20.0322   37.3138   29.3412 O.2     1  UNL1       -0.3128
     22 C          19.6738   38.7993   31.1049 C.ar    1  UNL1        0.0503
     23 C          20.3870   39.2194   32.2309 C.ar    1  UNL1        0.0157
     24 C          19.7099   39.6584   33.3489 C.ar    1  UNL1        0.0579
     25 C          18.3236   39.6844   33.3611 C.ar    1  UNL1        0.0145
     26 C          17.6076   39.2726   32.2549 C.ar    1  UNL1        0.0378
     27 C          18.2727   38.8280   31.1219 C.ar    1  UNL1        0.1399
     28 CL         20.5966   40.1794   34.7474 Cl      1  UNL1       -0.0822
     29 O          17.5698   38.4222   30.0348 O.3     1  UNL1       -0.4714
     30 C          16.1779   38.7442   30.0048 C.3     1  UNL1        0.2525
@<TRIPOS>UNITY_ATOM_ATTR
19 1
charge -1
@<TRIPOS>BOND
     1    10    11    1
     2    11     9    1
     3     9     7    1
     4     7     8    2
     5     7     1    1
     6     1     5   ar
     7     1     2   ar
     8     2     3   ar
     9     2     6    1
    10     3     4   ar
    11     3    12    1
    12     4     5   ar
    13     5    19    1
    14    19    20    1
    15    20    21    2
    16    20    22    1
    17    22    27   ar
    18    22    23   ar
    19    23    24   ar
    20    24    25   ar
    21    24    28    1
    22    25    26   ar
    23    26    27   ar
    24    27    29    1
    25    29    30    1
    26    12    13    2
    27    12    14    1
    28    14    15    1
    29    15    16    1
    30    15    17    1
    31    15    18    1
@<TRIPOS>MOLECULE
ZINC22566517
 32 34 0 0 0
SMALL
GASTEIGER

@<TRIPOS>ATOM
      1 C          26.2579   36.0403   31.3875 C.2     1  UNL1        0.2181
      2 O          26.8751   37.0849   31.4047 O.2     1  UNL1       -0.2873
      3 C          26.9605   34.7712   31.5886 C.ar    1  UNL1        0.0512
      4 C          27.3231   34.1535   32.8711 C.ar    1  UNL1        0.0168
      5 C          27.9458   33.0008   32.5734 C.ar    1  UNL1        0.0376
      6 N          28.0025   32.8596   31.2170 N.ar    1  UNL1       -0.3297
      7 C          27.4218   33.9102   30.6105 C.ar    1  UNL1        0.0403
      8 C          27.2907   34.1108   29.1227 C.3     1  UNL1        0.0501
      9 C          28.4938   32.0195   33.5772 C.3     1  UNL1        0.0500
     10 C          28.6103   31.7236   30.5197 C.3     1  UNL1        0.1329
     11 C          27.5420   30.7214   30.1659 C.ar    1  UNL1        0.0109
     12 C          26.8032   30.1164   31.1654 C.ar    1  UNL1       -0.0016
     13 C          25.8236   29.1968   30.8410 C.ar    1  UNL1       -0.0002
     14 C          25.5814   28.8822   29.5166 C.ar    1  UNL1        0.0008
     15 C          26.3190   29.4866   28.5164 C.ar    1  UNL1        0.0111
     16 C          27.2966   30.4109   28.8403 C.ar    1  UNL1        0.0555
     17 CL         28.2186   31.1759   27.5841 Cl      1  UNL1       -0.0825
     18 C          24.7683   36.0489   31.1592 C.3     1  UNL1        0.2770
     19 O          24.2558   37.3927   31.3589 O.3     1  UNL1       -0.4358
     20 C          23.7796   38.0332   30.2735 C.2     1  UNL1        0.3613
     21 O          24.5483   38.4753   29.4433 O.2     1  UNL1       -0.2431
     22 N          20.2995   38.6917   31.0110 N.ar    1  UNL1       -0.2165
     23 C          19.6582   38.5169   29.8404 C.ar    1  UNL1        0.2765
     24 O          18.4502   38.6718   29.7732 O.2     1  UNL1       -0.2655
     25 C          20.3935   38.1525   28.6905 C.ar    1  UNL1        0.0640
     26 C          21.7410   37.9912   28.8185 C.ar    1  UNL1        0.0324
     27 C          22.3223   38.1981   30.0932 C.ar    1  UNL1        0.1764
     28 N          21.5688   38.5311   31.1175 N.ar    1  UNL1       -0.1602
     29 C          19.5271   39.0696   32.1970 C.3     1  UNL1        0.1307
     30 C          20.2498   40.1961   32.9385 C.3     1  UNL1        0.0265
     31 C          19.8118   40.7378   35.3379 C.3     1  UNL1        0.0001
     32 C          20.5127   39.7686   34.3839 C.3     1  UNL1        0.0021
@<TRIPOS>BOND
     1    31    32    1
     2    32    30    1
     3    30    29    1
     4    29    22    1
     5    22    28   ar
     6    22    23   ar
     7    23    24    2
     8    23    25   ar
     9    25    26   ar
    10    26    27   ar
    11    27    28   ar
    12    27    20    1
    13    20    21    2
    14    20    19    1
    15    19    18    1
    16    18     1    1
    17     1     2    2
    18     1     3    1
    19     3     7   ar
    20     3     4   ar
    21     4     5   ar
    22     5     6   ar
    23     5     9    1
    24     6     7   ar
    25     6    10    1
    26     7     8    1
    27    10    11    1
    28    11    16   ar
    29    11    12   ar
    30    12    13   ar
    31    13    14   ar
    32    14    15   ar
    33    15    16   ar
    34    16    17    1
@<TRIPOS>MOLECULE
ZINC30715587
 32 34 0 0 0
SMALL
GASTEIGER

@<TRIPOS>ATOM
      1 C          21.4351   37.7650   27.5577 C.ar    1  UNL1        0.1938
      2 N          21.2769   36.5995   28.1446 N.ar    1  UNL1       -0.1221
      3 N          20.6554   36.7478   29.2596 N.ar    1  UNL1       -0.1282
      4 C          20.3703   38.0151   29.4486 C.ar    1  UNL1        0.1671
      5 N          20.8642   38.7060   28.3662 N.ar    1  UNL1       -0.2862
      6 C          19.6582   38.5920   30.6087 C.ar    1  UNL1        0.0376
      7 C          20.3782   39.1495   31.6668 C.ar    1  UNL1        0.0032
      8 C          19.7076   39.6865   32.7460 C.ar    1  UNL1        0.0018
      9 C          18.3243   39.6738   32.7810 C.ar    1  UNL1        0.0241
     10 C          17.6049   39.1228   31.7359 C.ar    1  UNL1        0.1430
     11 C          18.2633   38.5819   30.6506 C.ar    1  UNL1        0.0271
     12 N          16.1254   39.1130   31.7820 N.pl3   1  UNL1        0.0577
     13 O          15.5495   39.1268   32.8552 O.2     1  UNL1       -0.1261
     14 O          15.4840   39.0913   30.7468 O.2     1  UNL1       -0.1261
     15 S          22.2340   38.0584   26.0149 S.3     1  UNL1       -0.0672
     16 C          23.7947   38.7653   26.5985 C.3     1  UNL1        0.1310
     17 C          24.7275   37.6545   27.0074 C.2     1  UNL1        0.2357
     18 O          25.1305   36.8654   26.1794 O.2     1  UNL1       -0.2739
     19 N          25.1137   37.5380   28.2935 N.am    1  UNL1       -0.2787
     20 C          24.5632   38.4400   29.3082 C.3     1  UNL1        0.1148
     21 C          26.0840   36.5095   28.6765 C.3     1  UNL1        0.0754
     22 C          25.7449   35.9832   30.0726 C.3     1  UNL1        0.0198
     23 C          26.7582   34.9090   30.4727 C.3     1  UNL1        0.0017
     24 C          28.1641   35.5126   30.4828 C.3     1  UNL1        0.0001
     25 C          28.5032   36.0388   29.0867 C.3     1  UNL1        0.0017
     26 C          27.4898   37.1130   28.6866 C.3     1  UNL1        0.0198
     27 C          23.5434   39.5313   24.2337 C.3     1  UNL1        0.0014
     28 C          24.4362   39.5823   25.4751 C.3     1  UNL1        0.0192
     29 C          24.5969   41.0347   25.9285 C.3     1  UNL1        0.0014
     30 C          20.7920   40.1499   28.1297 C.3     1  UNL1        0.1359
     31 C          21.9509   40.8293   28.8126 C.2     1  UNL1       -0.0017
     32 C          22.2123   42.0883   28.5620 C.2     1  UNL1       -0.0029
@<TRIPOS>BOND
     1    27    28    1
     2    28    29    1
     3    28    16    1
     4    16    17    1
     5    16    15    1
     6    17    18    2
     7    17    19   am
     8    19    20    1
     9    19    21    1
    10    21    26    1
    11    21    22    1
    12    22    23    1
    13    23    24    1
    14    24    25    1
    15    25    26    1
    16    15     1    1
    17     1     5   ar
    18     1     2   ar
    19     2     3   ar
    20     3     4   ar
    21     4     5   ar
    22     4     6    1
    23     5    30    1
    24    30    31    1
    25    31    32    2
    26     6    11   ar
    27     6     7   ar
    28     7     8   ar
    29     8     9   ar
    30     9    10   ar
    31    10    11   ar
    32    10    12    1
    33    12    13    2
    34    12    14    2
@<TRIPOS>MOLECULE
ZINC27333273
 33 36 0 0 0
SMALL
GASTEIGER

@<TRIPOS>ATOM
      1 N          23.2736   40.4584   28.2443 N.ar    1  UNL1       -0.2165
      2 C          24.4366   40.1436   28.8506 C.ar    1  UNL1        0.2763
      3 O          25.3517   40.9451   28.8970 O.2     1  UNL1       -0.2655
      4 C          24.5734   38.8107   29.4542 C.ar    1  UNL1        0.0593
      5 C          25.7307   38.3893   30.1014 C.ar    1  UNL1        0.0048
      6 C          25.7791   37.1219   30.6420 C.ar    1  UNL1        0.0002
      7 C          24.6889   36.2670   30.5455 C.ar    1  UNL1        0.0001
      8 C          23.5331   36.6661   29.9081 C.ar    1  UNL1        0.0019
      9 C          23.4631   37.9405   29.3563 C.ar    1  UNL1        0.0304
     10 C          22.2678   38.4433   28.6596 C.ar    1  UNL1        0.1764
     11 N          22.2806   39.6560   28.1608 N.ar    1  UNL1       -0.1602
     12 C          21.0722   37.5910   28.5189 C.2     1  UNL1        0.3613
     13 O          20.8409   37.0385   27.4618 O.2     1  UNL1       -0.2431
     14 O          20.2363   37.4251   29.5630 O.3     1  UNL1       -0.4342
     15 C          19.3591   38.5356   29.8880 C.3     1  UNL1        0.2930
     16 C          19.6048   38.9702   31.3099 C.2     1  UNL1        0.2703
     17 O          20.7374   39.1642   31.6976 O.2     1  UNL1       -0.2708
     18 N          18.5657   39.1433   32.1507 N.am    1  UNL1       -0.2781
     19 C          17.1839   38.9136   31.7017 C.3     1  UNL1        0.0934
     20 C          16.3437   40.1563   32.0084 C.3     1  UNL1        0.0216
     21 C          16.4792   40.5172   33.4908 C.3     1  UNL1        0.0034
     22 C          17.9429   40.8199   33.8029 C.3     1  UNL1        0.0183
     23 C          18.7820   39.5655   33.5388 C.3     1  UNL1        0.0754
     24 C          20.2561   39.8877   33.7786 C.3     1  UNL1        0.0198
     25 C          20.4423   40.3174   35.2368 C.3     1  UNL1        0.0017
     26 C          19.5871   41.5512   35.5278 C.3     1  UNL1        0.0001
     27 C          18.1120   41.2359   35.2632 C.3     1  UNL1        0.0016
     28 C          23.1426   41.7883   27.6441 C.3     1  UNL1        0.1307
     29 C          22.1375   42.6144   28.4491 C.3     1  UNL1        0.0265
     30 C          22.8003   43.9127   28.9139 C.3     1  UNL1        0.0021
     31 C          23.9396   44.2741   27.9588 C.3     1  UNL1        0.0001
     32 C          25.2080   44.7526   30.0575 C.3     1  UNL1        0.0000
     33 C          24.8909   45.2547   28.6475 C.3     1  UNL1        0.0000
@<TRIPOS>BOND
     1    32    33    1
     2    33    31    1
     3    31    30    1
     4    30    29    1
     5    29    28    1
     6    28     1    1
     7     1    11   ar
     8     1     2   ar
     9     2     3    2
    10     2     4   ar
    11     4     9   ar
    12     4     5   ar
    13     5     6   ar
    14     6     7   ar
    15     7     8   ar
    16     8     9   ar
    17     9    10   ar
    18    10    11   ar
    19    10    12    1
    20    12    13    2
    21    12    14    1
    22    14    15    1
    23    15    16    1
    24    16    17    2
    25    16    18   am
    26    18    23    1
    27    18    19    1
    28    19    20    1
    29    20    21    1
    30    21    22    1
    31    22    27    1
    32    22    23    1
    33    23    24    1
    34    24    25    1
    35    25    26    1
    36    26    27    1
@<TRIPOS>MOLECULE
ZINC28395748
 32 34 0 0 0
SMALL
GASTEIGER

@<TRIPOS>ATOM
      1 C          26.4338   35.7962   30.9408 C.ar    1  UNL1        0.0499
      2 C          25.9197   36.2857   29.7825 C.ar    1  UNL1       -0.0166
      3 C          24.6707   37.0474   29.8473 C.ar    1  UNL1        0.0317
      4 C          24.0872   37.5744   28.6891 C.ar    1  UNL1        0.0172
      5 C          22.9255   38.2862   28.7786 C.ar    1  UNL1        0.0917
      6 C          22.3165   38.4909   30.0165 C.ar    1  UNL1        0.1525
      7 C          22.8806   37.9763   31.1718 C.ar    1  UNL1        0.0753
      8 C          24.0608   37.2513   31.0988 C.ar    1  UNL1        0.1514
      9 O          24.6274   36.7419   32.2138 O.2     1  UNL1       -0.4212
     10 C          25.7694   36.0385   32.1606 C.ar    1  UNL1        0.3414
     11 O          26.2439   35.5986   33.1925 O.2     1  UNL1       -0.2448
     12 CL         22.2016   38.9399   27.3425 Cl      1  UNL1       -0.0791
     13 C          26.6133   36.0470   28.4661 C.3     1  UNL1        0.0310
     14 C          27.7142   35.0015   30.9229 C.3     1  UNL1        0.0326
     15 C          27.3889   33.5135   30.7787 C.3     1  UNL1        0.0049
     16 C          28.1663   32.9338   29.5953 C.3     1  UNL1        0.0003
     17 C          27.2180   32.1218   28.7108 C.3     1  UNL1        0.0000
     18 C          26.6822   29.7094   28.3428 C.3     1  UNL1        0.0000
     19 C          26.8874   30.7964   29.3998 C.3     1  UNL1        0.0000
     20 O          21.1615   39.2007   30.0896 O.3     1  UNL1       -0.4696
     21 C          19.9435   38.4549   30.1352 C.3     1  UNL1        0.2351
     22 C          19.0925   38.9519   31.2753 C.ar    1  UNL1        0.0568
     23 C          19.6888   39.4839   32.4024 C.ar    1  UNL1        0.0264
     24 C          18.9087   39.9439   33.4468 C.ar    1  UNL1        0.1429
     25 C          17.5302   39.8643   33.3705 C.ar    1  UNL1        0.0272
     26 C          16.9293   39.3286   32.2482 C.ar    1  UNL1        0.0384
     27 C          17.7101   38.8705   31.1965 C.ar    1  UNL1        0.1383
     28 N          19.5500   40.5175   34.6510 N.pl3   1  UNL1        0.0577
     29 O          18.9896   41.3985   35.2783 O.2     1  UNL1       -0.1261
     30 O          20.6381   40.1087   35.0148 O.2     1  UNL1       -0.1261
     31 O          17.1212   38.3425   30.0913 O.3     1  UNL1       -0.4716
     32 C          15.7620   38.7074   29.8434 C.3     1  UNL1        0.2525
@<TRIPOS>BOND
     1    18    19    1
     2    19    17    1
     3    17    16    1
     4    16    15    1
     5    15    14    1
     6    14     1    1
     7     1    10   ar
     8     1     2   ar
     9     2     3   ar
    10     2    13    1
    11     3     8   ar
    12     3     4   ar
    13     4     5   ar
    14     5     6   ar
    15     5    12    1
    16     6     7   ar
    17     6    20    1
    18     7     8   ar
    19     8     9   ar
    20     9    10   ar
    21    10    11    2
    22    20    21    1
    23    21    22    1
    24    22    27   ar
    25    22    23   ar
    26    23    24   ar
    27    24    25   ar
    28    24    28    1
    29    25    26   ar
    30    26    27   ar
    31    27    31    1
    32    31    32    1
    33    28    29    2
    34    28    30    2
@<TRIPOS>MOLECULE
ZINC08957415
 32 34 0 0 0
SMALL
GASTEIGER

@<TRIPOS>ATOM
      1 C          20.0012   38.3887   29.5986 C.2     1  UNL1        0.2709
      2 O          20.1273   37.2531   29.1739 O.2     1  UNL1       -0.2679
      3 N          20.7324   39.3816   29.0807 N.am    1  UNL1       -0.1520
      4 C          22.0565   39.2820   29.0440 C.ar    1  UNL1        0.1677
      5 N          22.9572   40.1798   28.5605 N.ar    1  UNL1       -0.3048
      6 C          24.3100   39.8983   28.6085 C.ar    1  UNL1        0.0670
      7 C          25.3805   40.6905   28.1643 C.ar    1  UNL1        0.0135
      8 C          26.6776   40.2529   28.2889 C.ar    1  UNL1       -0.0207
      9 C          26.9692   39.0225   28.8539 C.ar    1  UNL1       -0.0079
     10 C          25.9332   38.2214   29.3006 C.ar    1  UNL1       -0.0147
     11 C          24.6355   38.6580   29.1761 C.ar    1  UNL1        0.0439
     12 S          23.0526   37.9760   29.6006 S.2     1  UNL1       -0.0517
     13 C          26.2255   36.8788   29.9194 C.3     1  UNL1        0.0316
     14 C          27.8033   41.1282   27.8012 C.3     1  UNL1        0.0311
     15 C          22.4931   41.4462   27.9887 C.3     1  UNL1        0.1342
     16 C          22.4553   42.4997   29.0658 C.2     1  UNL1       -0.0017
     17 C          23.0714   43.6418   28.8869 C.2     1  UNL1       -0.0029
     18 C          16.7754   39.0016   31.4302 C.ar    1  UNL1        0.1754
     19 C          17.6729   38.7402   30.4111 C.ar    1  UNL1        0.0448
     20 C          19.0392   38.6686   30.6872 C.ar    1  UNL1        0.0617
     21 C          19.4963   38.8560   31.9926 C.ar    1  UNL1        0.0448
     22 C          18.5959   39.1223   33.0079 C.ar    1  UNL1        0.1754
     23 C          17.2336   39.1928   32.7305 C.ar    1  UNL1        0.2059
     24 O          15.4439   39.0714   31.1617 O.3     1  UNL1       -0.4723
     25 C          13.7296   37.9117   29.9140 C.3     1  UNL1        0.0512
     26 C          15.0288   38.7164   29.8412 C.3     1  UNL1        0.2057
     27 O          16.3497   39.4491   33.7309 O.3     1  UNL1       -0.4695
     28 C          16.3256   40.7803   34.2500 C.3     1  UNL1        0.2058
     29 C          15.7620   41.7304   33.1916 C.3     1  UNL1        0.0512
     30 O          19.0411   39.3100   34.2792 O.3     1  UNL1       -0.4723
     31 C          20.1729   40.1654   34.4506 C.3     1  UNL1        0.2057
     32 C          19.7007   41.6135   34.5947 C.3     1  UNL1        0.0512
@<TRIPOS>BOND
     1    25    26    1
     2    26    24    1
     3    24    18    1
     4    18    23   ar
     5    18    19   ar
     6    19    20   ar
     7    20    21   ar
     8    20     1    1
     9    21    22   ar
    10    22    23   ar
    11    22    30    1
    12    23    27    1
    13    27    28    1
    14    28    29    1
    15    30    31    1
    16    31    32    1
    17     1     2    2
    18     1     3    1
    19     3     4    2
    20     4    12   ar
    21     4     5   ar
    22     5     6   ar
    23     5    15    1
    24     6    11   ar
    25     6     7   ar
    26     7     8   ar
    27     8     9   ar
    28     8    14    1
    29     9    10   ar
    30    10    11   ar
    31    10    13    1
    32    11    12   ar
    33    15    16    1
    34    16    17    2
@<TRIPOS>MOLECULE
ZINC08412585
 32 34 0 0 0
SMALL
GASTEIGER

@<TRIPOS>ATOM
      1 C          23.8307   41.9683   27.9520 C.ar    1  UNL1        0.0595
      2 C          22.5743   42.2621   28.4557 C.ar    1  UNL1        0.0149
      3 C          21.6296   41.2588   28.5595 C.ar    1  UNL1        0.0061
      4 C          21.9831   39.9654   28.1460 C.ar    1  UNL1        0.0582
      5 C          23.2835   39.7451   27.6500 C.ar    1  UNL1        0.1094
      6 N          24.1463   40.7476   27.5685 N.ar    1  UNL1       -0.2434
      7 C          21.0203   38.8635   28.2340 C.2     1  UNL1        0.1750
      8 O          20.2430   38.6631   27.3244 O.2     1  UNL1       -0.2913
      9 C          20.9961   37.9799   29.4546 C.3     1  UNL1        0.0692
     10 C          21.3836   38.8007   30.6862 C.3     1  UNL1        0.0081
     11 C          20.1240   39.3934   31.3211 C.3     1  UNL1        0.0005
     12 C          18.9666   38.4030   31.1785 C.3     1  UNL1        0.0000
     13 C          24.8571   43.0660   27.8409 C.3     1  UNL1        0.0458
     14 C          25.4829   43.3202   29.2138 C.3     1  UNL1        0.0063
     15 C          24.9379   45.6793   28.5979 C.3     1  UNL1        0.0000
     16 C          25.0079   44.6728   29.7481 C.3     1  UNL1        0.0004
     17 S          23.7619   38.1312   27.1292 S.3     1  UNL1       -0.0859
     18 C          25.4365   38.0639   27.8129 C.3     1  UNL1        0.1394
     19 C          26.1868   36.8220   27.2899 C.3     1  UNL1        0.1064
     20 C          26.4876   36.0343   28.5464 C.2     1  UNL1        0.2365
     21 O          27.0740   34.9740   28.5869 O.2     1  UNL1       -0.2741
     22 N          26.0031   36.6934   29.6061 N.am    1  UNL1       -0.2074
     23 C          25.3921   37.8514   29.3104 C.2     1  UNL1        0.2456
     24 O          24.8851   38.6064   30.1120 O.2     1  UNL1       -0.2732
     25 C          26.1255   36.2144   30.9195 C.ar    1  UNL1        0.0609
     26 C          27.2841   36.4609   31.6433 C.ar    1  UNL1        0.0184
     27 C          27.4019   35.9940   32.9374 C.ar    1  UNL1        0.0382
     28 C          26.3670   35.2694   33.5106 C.ar    1  UNL1        0.1388
     29 C          25.2112   35.0179   32.7856 C.ar    1  UNL1        0.0382
     30 C          25.0904   35.4890   31.4932 C.ar    1  UNL1        0.0184
     31 O          26.4855   34.8053   34.7830 O.3     1  UNL1       -0.4714
     32 C          27.6614   34.0547   35.0928 C.3     1  UNL1        0.2525
@<TRIPOS>BOND
     1    15    16    1
     2    16    14    1
     3    14    13    1
     4    13     1    1
     5     1     6   ar
     6     1     2   ar
     7     2     3   ar
     8     3     4   ar
     9     4     5   ar
    10     4     7    1
    11     5     6   ar
    12     5    17    1
    13    17    18    1
    14    18    23    1
    15    18    19    1
    16    19    20    1
    17    20    21    2
    18    20    22   am
    19    22    23   am
    20    22    25    1
    21    23    24    2
    22    25    30   ar
    23    25    26   ar
    24    26    27   ar
    25    27    28   ar
    26    28    29   ar
    27    28    31    1
    28    29    30   ar
    29    31    32    1
    30     7     8    2
    31     7     9    1
    32     9    10    1
    33    10    11    1
    34    11    12    1
@<TRIPOS>MOLECULE
ZINC08980285
 34 37 0 0 0
SMALL
GASTEIGER

@<TRIPOS>ATOM
      1 C          23.0252   38.2074   29.0413 C.ar    1  UNL1        0.1151
      2 C          24.1337   38.5002   28.2264 C.ar    1  UNL1        0.1470
      3 N          25.3510   38.1594   28.6043 N.ar    1  UNL1       -0.2279
      4 C          25.5288   37.5192   29.7669 C.ar    1  UNL1        0.1003
      5 C          26.8119   37.1369   30.1933 C.ar    1  UNL1        0.0207
      6 C          26.9634   36.4875   31.3801 C.ar    1  UNL1        0.0016
      7 C          25.8620   36.1946   32.1818 C.ar    1  UNL1        0.0016
      8 C          24.6045   36.5497   31.8005 C.ar    1  UNL1        0.0206
      9 C          24.4091   37.2215   30.5818 C.ar    1  UNL1        0.0987
     10 N          23.1827   37.5819   30.1827 N.ar    1  UNL1       -0.2437
     11 N          23.9462   39.1574   27.0198 N.pl3   1  UNL1       -0.2888
     12 C          23.7587   38.1990   25.9216 C.3     1  UNL1        0.1136
     13 C          23.4767   38.9617   24.6251 C.3     1  UNL1        0.1123
     14 N          24.5957   39.8710   24.3413 N.pl3   1  UNL1       -0.3041
     15 C          24.7833   40.8294   25.4394 C.3     1  UNL1        0.1123
     16 C          25.0653   40.0667   26.7361 C.3     1  UNL1        0.1136
     17 C          24.4070   40.5330   23.1259 C.ar    1  UNL1        0.0479
     18 C          23.2872   40.2592   22.3507 C.ar    1  UNL1        0.0145
     19 C          23.1012   40.9190   21.1519 C.ar    1  UNL1        0.0013
     20 C          24.0334   41.8437   20.7178 C.ar    1  UNL1        0.0001
     21 C          25.1519   42.1147   21.4846 C.ar    1  UNL1        0.0013
     22 C          25.3414   41.4623   22.6870 C.ar    1  UNL1        0.0145
     23 C          21.6435   38.6109   28.5954 C.3     1  UNL1        0.2319
     24 C          20.9395   39.3216   29.7224 C.2     1  UNL1        0.3369
     25 O          21.1117   40.5056   29.8912 O.2     1  UNL1       -0.2485
     26 O          20.1168   38.6405   30.5355 O.3     1  UNL1       -0.4475
     27 C          20.0902   39.0396   31.9313 C.3     1  UNL1        0.2085
     28 C          18.6579   39.3989   32.3318 C.3     1  UNL1        0.0474
     29 C          18.5663   39.5072   33.8552 C.3     1  UNL1        0.0038
     30 C          19.9138   39.1321   34.4752 C.3     1  UNL1        0.0001
     31 C          19.3518   41.3592   35.4583 C.3     1  UNL1        0.0000
     32 C          20.4602   40.3222   35.2663 C.3     1  UNL1        0.0000
     33 C          20.8793   37.4104   28.2190 C.1     1  UNL1        0.0898
     34 N          20.2895   36.4840   27.9286 N.1     1  UNL1       -0.1949
@<TRIPOS>BOND
     1    31    32    1
     2    32    30    1
     3    30    29    1
     4    29    28    1
     5    28    27    1
     6    27    26    1
     7    26    24    1
     8    24    25    2
     9    24    23    1
    10    23    33    1
    11    23     1    1
    12    33    34    3
    13     1    10   ar
    14     1     2   ar
    15     2     3   ar
    16     2    11    1
    17     3     4   ar
    18     4     9   ar
    19     4     5   ar
    20     5     6   ar
    21     6     7   ar
    22     7     8   ar
    23     8     9   ar
    24     9    10   ar
    25    11    16    1
    26    11    12    1
    27    12    13    1
    28    13    14    1
    29    14    15    1
    30    14    17    1
    31    15    16    1
    32    17    22   ar
    33    17    18   ar
    34    18    19   ar
    35    19    20   ar
    36    20    21   ar
    37    21    22   ar
@<TRIPOS>MOLECULE
ZINC18170380
 31 33 0 0 0
SMALL
GASTEIGER

@<TRIPOS>ATOM
      1 N          23.1288   39.4172   28.4641 N.am    1  UNL1       -0.2715
      2 C          21.8452   39.7741   28.6677 C.2     1  UNL1        0.2706
      3 O          21.5752   40.9141   28.9812 O.2     1  UNL1       -0.2708
      4 C          24.1979   40.4064   28.6214 C.3     1  UNL1        0.0985
      5 C          24.2595   41.2932   27.3761 C.3     1  UNL1        0.0478
      6 C          25.4337   45.2440   28.4986 C.ar    1  UNL1       -0.0000
      7 C          24.4597   44.5808   29.2214 C.ar    1  UNL1       -0.0003
      8 C          24.0796   43.3024   28.8580 C.ar    1  UNL1       -0.0042
      9 C          24.6737   42.6871   27.7720 C.ar    1  UNL1       -0.0205
     10 C          25.6517   43.3481   27.0527 C.ar    1  UNL1       -0.0042
     11 C          26.0281   44.6285   27.4129 C.ar    1  UNL1       -0.0003
     12 C          23.4550   38.0401   28.0854 C.3     1  UNL1        0.1266
     13 C          24.2199   37.3795   29.2033 C.ar    1  UNL1        0.0273
     14 C          23.7924   37.0339   30.4424 C.ar    1  UNL1        0.0044
     15 C          24.6814   36.4356   31.3155 C.ar    1  UNL1        0.0072
     16 C          25.9513   36.2018   30.9029 C.ar    1  UNL1        0.0352
     17 S          25.9239   36.8484   29.2391 S.2     1  UNL1       -0.0891
     18 C          20.7455   38.7565   28.5059 C.3     1  UNL1        0.2929
     19 O          20.4154   38.1905   29.8017 O.3     1  UNL1       -0.4353
     20 C          19.2363   38.5513   30.3443 C.2     1  UNL1        0.3417
     21 O          18.1991   38.3070   29.7610 O.2     1  UNL1       -0.2449
     22 C          19.2046   39.2438   31.6480 C.ar    1  UNL1        0.0774
     23 C          20.3880   39.4513   32.3608 C.ar    1  UNL1        0.0074
     24 C          20.3526   40.1036   33.5748 C.ar    1  UNL1        0.0133
     25 C          19.1453   40.5429   34.0935 C.ar    1  UNL1        0.0801
     26 C          17.9680   40.3351   33.3942 C.ar    1  UNL1        0.1535
     27 C          17.9910   39.6890   32.1761 C.ar    1  UNL1        0.0314
     28 CL         19.1082   41.3577   35.6260 Cl      1  UNL1       -0.0805
     29 N          16.6825   40.8080   33.9553 N.pl3   1  UNL1        0.0585
     30 O          15.9597   40.0344   34.5578 O.2     1  UNL1       -0.1261
     31 O          16.3475   41.9705   33.8146 O.2     1  UNL1       -0.1261
@<TRIPOS>BOND
     1     6    11   ar
     2     6     7   ar
     3     7     8   ar
     4     8     9   ar
     5     9    10   ar
     6     9     5    1
     7    10    11   ar
     8     5     4    1
     9     4     1    1
    10     1    12    1
    11     1     2   am
    12    12    13    1
    13    13    17   ar
    14    13    14   ar
    15    14    15   ar
    16    15    16   ar
    17    16    17   ar
    18     2     3    2
    19     2    18    1
    20    18    19    1
    21    19    20    1
    22    20    21    2
    23    20    22    1
    24    22    27   ar
    25    22    23   ar
    26    23    24   ar
    27    24    25   ar
    28    25    26   ar
    29    25    28    1
    30    26    27   ar
    31    26    29    1
    32    29    30    2
    33    29    31    2
@<TRIPOS>MOLECULE
ZINC14873335
 32 33 0 0 0
SMALL
GASTEIGER

@<TRIPOS>ATOM
      1 N          24.4101   39.0230   29.1315 N.ar    1  UNL1       -0.2888
      2 C          25.2610   38.0637   29.4535 C.ar    1  UNL1        0.2673
      3 O          24.9103   37.0904   30.0951 O.2     1  UNL1       -0.2664
      4 C          26.6547   38.2267   28.9990 C.ar    1  UNL1        0.0869
      5 C          27.7238   37.4093   29.1840 C.2     1  UNL1        0.0115
      6 S          26.5586   39.7942   28.1459 S.2     1  UNL1       -0.0636
      7 C          24.8213   40.1130   28.4070 C.ar    1  UNL1        0.1123
      8 C          24.0663   41.2093   27.9828 C.2     1  UNL1        0.1584
      9 C          27.5379   36.0820   29.7830 C.ar    1  UNL1        0.0069
     10 C          27.6254   35.9197   31.1711 C.ar    1  UNL1        0.0403
     11 C          27.4502   34.6685   31.7308 C.ar    1  UNL1        0.1754
     12 C          27.1871   33.5697   30.9164 C.ar    1  UNL1        0.2061
     13 C          27.0994   33.7270   29.5353 C.ar    1  UNL1        0.1754
     14 C          27.2789   34.9737   28.9671 C.ar    1  UNL1        0.0403
     15 O          26.8422   32.6510   28.7443 O.3     1  UNL1       -0.4683
     16 C          27.0990   32.7973   27.3462 C.3     1  UNL1        0.2526
     17 O          27.0150   32.3407   31.4709 O.3     1  UNL1       -0.4654
     18 C          28.1819   31.5313   31.6294 C.3     1  UNL1        0.2528
     19 O          27.5353   34.5096   33.0788 O.3     1  UNL1       -0.4683
     20 C          26.4691   35.0471   33.8639 C.3     1  UNL1        0.2526
     21 C          24.7075   42.3115   27.3313 C.1     1  UNL1        0.1129
     22 N          25.2162   43.1858   26.8144 N.1     1  UNL1       -0.1901
     23 C          22.6509   41.2306   28.1995 C.1     1  UNL1        0.1129
     24 N          21.5281   41.2476   28.3715 N.1     1  UNL1       -0.1901
     25 C          23.0108   38.9207   29.5530 C.3     1  UNL1        0.1095
     26 C          22.3788   37.6766   28.9257 C.3     1  UNL1        0.0227
     27 C          22.5764   37.7137   27.4090 C.3     1  UNL1        0.0019
     28 C          21.2233   37.9128   26.7231 C.3     1  UNL1        0.0001
     29 C          20.8826   37.6488   29.2445 C.3     1  UNL1        0.0019
     30 C          20.5957   38.5766   30.4268 C.3     1  UNL1        0.0001
     31 C          18.8913   38.7515   32.2452 C.3     1  UNL1        0.0000
     32 C          19.0988   38.5524   30.7425 C.3     1  UNL1        0.0000
@<TRIPOS>BOND
     1    31    32    1
     2    32    30    1
     3    30    29    1
     4    29    26    1
     5    26    27    1
     6    26    25    1
     7    27    28    1
     8    25     1    1
     9     1     7   ar
    10     1     2   ar
    11     2     3    2
    12     2     4   ar
    13     4     5    2
    14     4     6   ar
    15     5     9    1
    16     9    14   ar
    17     9    10   ar
    18    10    11   ar
    19    11    12   ar
    20    11    19    1
    21    12    13   ar
    22    12    17    1
    23    13    14   ar
    24    13    15    1
    25    15    16    1
    26    17    18    1
    27    19    20    1
    28     6     7   ar
    29     7     8    2
    30     8    21    1
    31     8    23    1
    32    21    22    3
    33    23    24    3
@<TRIPOS>MOLECULE
ZINC11980886
 31 32 0 0 0
SMALL
GASTEIGER

@<TRIPOS>ATOM
      1 N          23.7587   40.3317   28.1241 N.am    1  UNL1       -0.2757
      2 C          23.8803   38.9963   28.2583 C.2     1  UNL1        0.2711
      3 O          24.7781   38.4092   27.6922 O.2     1  UNL1       -0.2707
      4 H          23.0298   40.8083   28.5835 H       1  UNL1        0.1554
      5 C          26.1491   42.1983   25.4348 C.ar    1  UNL1        0.0047
      6 C          26.4961   42.4663   26.7062 C.ar    1  UNL1       -0.0119
      7 C          25.7051   41.8553   27.7484 C.ar    1  UNL1        0.0915
      8 C          24.6596   41.0344   27.3393 C.ar    1  UNL1        0.0864
      9 S          24.7513   41.1092   25.6118 S.2     1  UNL1       -0.0767
     10 C          27.6573   43.3707   27.0294 C.3     1  UNL1        0.0315
     11 C          26.9422   41.5403   23.1794 C.3     1  UNL1        0.0056
     12 C          26.7886   42.6998   24.1657 C.3     1  UNL1        0.0327
     13 C          25.9922   42.0854   29.1658 C.2     1  UNL1        0.3426
     14 O          26.3533   41.1623   29.8709 O.2     1  UNL1       -0.2448
     15 O          25.8562   43.3210   29.6895 O.3     1  UNL1       -0.4454
     16 C          24.6268   44.0326   29.3888 C.3     1  UNL1        0.2089
     17 C          24.9619   45.3825   28.7513 C.3     1  UNL1        0.0513
     18 C          22.9009   38.2323   29.1115 C.3     1  UNL1        0.2930
     19 O          21.7178   39.0128   29.2938 O.3     1  UNL1       -0.4353
     20 C          20.5448   38.3469   29.3356 C.2     1  UNL1        0.3419
     21 O          20.4426   37.2601   28.7978 O.2     1  UNL1       -0.2449
     22 C          19.4321   38.9149   29.9998 C.2     1  UNL1        0.0820
     23 C          18.9587   38.3476   31.1327 C.2     1  UNL1        0.0102
     24 C          17.8043   38.9369   31.8216 C.ar    1  UNL1        0.0435
     25 C          17.8008   39.5154   33.1129 C.ar    1  UNL1        0.0812
     26 N          16.5906   39.9287   33.3675 N.ar    1  UNL1       -0.1728
     27 N          15.7679   39.6321   32.2753 N.ar    1  UNL1       -0.2385
     28 C          16.5109   39.0266   31.3325 C.ar    1  UNL1        0.1360
     29 CL         15.9533   38.4613   29.7888 Cl      1  UNL1       -0.0617
     30 C          14.3370   39.9303   32.1761 C.3     1  UNL1        0.1547
     31 C          18.9892   39.6369   34.0317 C.3     1  UNL1        0.0540
@<TRIPOS>BOND
     1    11    12    1
     2    12     5    1
     3     5     9   ar
     4     5     6   ar
     5     6     7   ar
     6     6    10    1
     7     7     8   ar
     8     7    13    1
     9     8     9   ar
    10     8     1    1
    11     1     2   am
    12     2     3    2
    13     2    18    1
    14    18    19    1
    15    19    20    1
    16    20    21    2
    17    20    22    1
    18    22    23    2
    19    23    24    1
    20    24    28   ar
    21    24    25   ar
    22    25    26   ar
    23    25    31    1
    24    26    27   ar
    25    27    28   ar
    26    27    30    1
    27    28    29    1
    28    13    14    2
    29    13    15    1
    30    15    16    1
    31    16    17    1
    32     1     4    1
@<TRIPOS>MOLECULE
ZINC19974596
 32 34 0 0 0
SMALL
GASTEIGER

@<TRIPOS>ATOM
      1 N          21.7585   52.1953   21.9398 N.ar    1  UNL1       -0.2910
      2 C          20.8110   52.3533   22.9132 C.ar    1  UNL1        0.1840
      3 N          19.6756   52.5812   22.3160 N.ar    1  UNL1       -0.1291
      4 N          19.8375   52.5691   21.0411 N.ar    1  UNL1       -0.1223
      5 C          21.0972   52.3366   20.7537 C.ar    1  UNL1        0.1933
      6 C          21.0385   52.2804   24.4011 C.3     1  UNL1        0.2236
      7 C          22.2793   53.0970   24.7680 C.3     1  UNL1        0.0557
      8 O          21.2336   50.9183   24.7870 O.3     1  UNL1       -0.4719
      9 C          20.7762   50.5530   26.0136 C.ar    1  UNL1        0.1350
     10 C          19.4401   50.7360   26.3399 C.ar    1  UNL1        0.0366
     11 C          18.9777   50.3639   27.5871 C.ar    1  UNL1        0.0031
     12 C          19.8452   49.8090   28.5101 C.ar    1  UNL1       -0.0001
     13 C          21.1768   49.6253   28.1873 C.ar    1  UNL1       -0.0013
     14 C          21.6431   49.9914   26.9393 C.ar    1  UNL1        0.0115
     15 C          23.0937   49.7855   26.5860 C.3     1  UNL1        0.0253
     16 C          23.9011   51.0141   27.0096 C.3     1  UNL1        0.0048
     17 C          23.6256   48.5497   27.3145 C.3     1  UNL1        0.0048
     18 C          23.1856   51.9245   22.1301 C.3     1  UNL1        0.1092
     19 C          24.1173   49.8885   23.2387 C.3     1  UNL1        0.0020
     20 C          23.4458   50.4251   21.9730 C.3     1  UNL1        0.0227
     21 C          24.3622   50.1897   20.7706 C.3     1  UNL1        0.0020
     22 S          21.8012   52.2269   19.1421 S.3     1  UNL1       -0.0708
     23 C          20.7588   50.9290   18.4315 C.3     1  UNL1        0.0930
     24 C          21.4740   49.6055   18.5206 C.ar    1  UNL1        0.0116
     25 C          22.5428   49.3397   17.6849 C.ar    1  UNL1       -0.0018
     26 C          23.2018   48.1278   17.7698 C.ar    1  UNL1       -0.0002
     27 C          22.7855   47.1771   18.6832 C.ar    1  UNL1        0.0017
     28 C          21.7136   47.4407   19.5150 C.ar    1  UNL1        0.0238
     29 C          21.0578   48.6551   19.4337 C.ar    1  UNL1        0.1397
     30 N          19.9096   48.9372   20.3243 N.pl3   1  UNL1        0.0574
     31 O          18.7730   48.8736   19.8913 O.2     1  UNL1       -0.1261
     32 O          20.1015   49.2331   21.4901 O.2     1  UNL1       -0.1261
@<TRIPOS>BOND
     1    19    20    1
     2    20    21    1
     3    20    18    1
     4    18     1    1
     5     1     5   ar
     6     1     2   ar
     7     2     3   ar
     8     2     6    1
     9     3     4   ar
    10     4     5   ar
    11     5    22    1
    12    22    23    1
    13    23    24    1
    14    24    29   ar
    15    24    25   ar
    16    25    26   ar
    17    26    27   ar
    18    27    28   ar
    19    28    29   ar
    20    29    30    1
    21    30    31    2
    22    30    32    2
    23     6     7    1
    24     6     8    1
    25     8     9    1
    26     9    14   ar
    27     9    10   ar
    28    10    11   ar
    29    11    12   ar
    30    12    13   ar
    31    13    14   ar
    32    14    15    1
    33    15    16    1
    34    15    17    1
@<TRIPOS>MOLECULE
ZINC31871980
 33 35 0 0 0
SMALL
GASTEIGER

@<TRIPOS>ATOM
      1 C          24.6760   36.3578   30.5916 C.3     1  UNL1        0.1885
      2 C          23.8419   37.5029   30.0858 C.ar    1  UNL1        0.0295
      3 C          22.5540   37.9065   30.0976 C.ar    1  UNL1        0.0817
      4 C          22.2107   39.1211   29.4568 C.ar    1  UNL1        0.3457
      5 O          21.0470   39.4810   29.4706 O.2     1  UNL1       -0.2445
      6 O          23.1210   39.8965   28.8315 O.2     1  UNL1       -0.4211
      7 C          24.4190   39.5230   28.8011 C.ar    1  UNL1        0.1536
      8 C          24.7683   38.3316   29.4270 C.ar    1  UNL1        0.0679
      9 C          26.0547   37.8075   29.4860 C.ar    1  UNL1        0.1407
     10 C          27.0513   38.5465   28.8670 C.ar    1  UNL1        0.0507
     11 C          26.7295   39.7443   28.2327 C.ar    1  UNL1        0.1499
     12 C          25.4318   40.2439   28.1895 C.ar    1  UNL1        0.0864
     13 O          26.0255   36.6367   30.1701 O.3     1  UNL1       -0.4749
     14 C          25.9546   35.8277   32.6716 C.3     1  UNL1        0.0042
     15 C          24.6040   36.2862   32.1181 C.3     1  UNL1        0.0482
     16 C          25.1332   41.5449   27.4901 C.3     1  UNL1        0.1968
     17 C          24.6051   42.5603   28.5054 C.3     1  UNL1        0.0447
     18 C          23.3142   43.1874   27.9751 C.3     1  UNL1        0.0041
     19 C          25.6516   43.6547   28.7239 C.3     1  UNL1        0.0039
     20 C          25.1235   44.6698   29.7396 C.3     1  UNL1        0.0001
     21 O          24.1324   41.3230   26.4618 O.3     1  UNL1       -0.4475
     22 C          24.5655   40.8541   25.2810 C.2     1  UNL1        0.3178
     23 O          25.3131   41.5196   24.6042 O.2     1  UNL1       -0.2501
     24 C          24.1193   39.4976   24.7994 C.3     1  UNL1        0.1212
     25 O          27.7213   40.4522   27.6335 O.3     1  UNL1       -0.4244
     26 C          28.5834   41.0950   28.4381 C.2     1  UNL1        0.3220
     27 O          28.1900   41.6059   29.4598 O.2     1  UNL1       -0.2497
     28 C          30.0415   41.1788   28.0666 C.3     1  UNL1        0.1216
     29 C          28.4763   38.0565   28.8808 C.3     1  UNL1        0.0578
     30 C          28.6717   37.0488   27.7774 C.2     1  UNL1       -0.0297
     31 C          29.0910   35.8405   28.0606 C.2     1  UNL1       -0.0475
     32 C          29.2632   35.4201   29.4975 C.3     1  UNL1        0.0260
     33 C          29.4011   34.8707   26.9495 C.3     1  UNL1        0.0260
@<TRIPOS>BOND
     1    14    15    1
     2    15     1    1
     3     1    13    1
     4     1     2    1
     5     2     8   ar
     6     2     3   ar
     7     3     4   ar
     8     4     5    2
     9     4     6   ar
    10     6     7   ar
    11     7    12   ar
    12     7     8   ar
    13     8     9   ar
    14     9    10   ar
    15     9    13    1
    16    10    11   ar
    17    10    29    1
    18    11    12   ar
    19    11    25    1
    20    12    16    1
    21    16    17    1
    22    16    21    1
    23    17    18    1
    24    17    19    1
    25    19    20    1
    26    21    22    1
    27    22    23    2
    28    22    24    1
    29    25    26    1
    30    26    27    2
    31    26    28    1
    32    29    30    1
    33    30    31    2
    34    31    32    1
    35    31    33    1
@<TRIPOS>MOLECULE
ZINC23589178
 32 34 0 0 0
SMALL
GASTEIGER

@<TRIPOS>ATOM
      1 N          24.6398   39.0785   26.6378 N.ar    1  UNL1       -0.2757
      2 C          25.5973   39.9897   26.3491 C.ar    1  UNL1        0.2637
      3 O          26.6008   39.6772   25.7353 O.2     1  UNL1       -0.2669
      4 C          25.3792   41.3734   26.7999 C.ar    1  UNL1        0.0739
      5 C          26.3079   42.3818   26.5446 C.ar    1  UNL1        0.0065
      6 C          26.0712   43.6522   26.9853 C.ar    1  UNL1        0.0067
      7 C          24.9007   43.9551   27.6930 C.ar    1  UNL1        0.0771
      8 C          23.9619   42.9662   27.9585 C.ar    1  UNL1        0.0258
      9 C          24.1935   41.6619   27.5128 C.ar    1  UNL1        0.0882
     10 N          23.3068   40.6664   27.7489 N.ar    1  UNL1       -0.2224
     11 C          23.5220   39.4431   27.3325 C.ar    1  UNL1        0.1738
     12 C          24.6629   45.3383   28.1615 C.2     1  UNL1        0.3414
     13 O          25.0381   45.6786   29.2652 O.2     1  UNL1       -0.2449
     14 O          24.0303   46.2201   27.3636 O.3     1  UNL1       -0.4413
     15 C          24.4883   47.5972   27.4099 C.3     1  UNL1        0.2560
     16 C          24.8061   37.6882   26.2069 C.3     1  UNL1        0.1109
     17 C          26.5262   35.8884   25.9969 C.3     1  UNL1        0.0020
     18 C          26.1019   37.1241   26.7931 C.3     1  UNL1        0.0228
     19 C          25.8733   36.7352   28.2551 C.3     1  UNL1        0.0020
     20 S          22.3133   38.2106   27.6857 S.3     1  UNL1       -0.0703
     21 C          22.0378   38.5357   29.4448 C.3     1  UNL1        0.1163
     22 C          23.0498   37.7431   30.2745 C.3     1  UNL1        0.0204
     23 C          20.6404   38.1146   29.8206 C.2     1  UNL1        0.1830
     24 O          20.0726   37.2559   29.1791 O.2     1  UNL1       -0.2904
     25 C          19.9661   38.7440   30.9634 C.ar    1  UNL1        0.0358
     26 C          20.6990   39.5159   31.8735 C.ar    1  UNL1        0.0060
     27 C          20.0636   40.1064   32.9354 C.ar    1  UNL1        0.0370
     28 C          18.6959   39.9301   33.1161 C.ar    1  UNL1        0.1387
     29 C          17.9645   39.1593   32.2187 C.ar    1  UNL1        0.0370
     30 C          18.5893   38.5695   31.1501 C.ar    1  UNL1        0.0060
     31 O          18.0729   40.5121   34.1713 O.3     1  UNL1       -0.4714
     32 C          18.8280   41.4601   34.9283 C.3     1  UNL1        0.2525
@<TRIPOS>BOND
     1    17    18    1
     2    18    19    1
     3    18    16    1
     4    16     1    1
     5     1    11   ar
     6     1     2   ar
     7     2     3    2
     8     2     4   ar
     9     4     9   ar
    10     4     5   ar
    11     5     6   ar
    12     6     7   ar
    13     7     8   ar
    14     7    12    1
    15     8     9   ar
    16     9    10   ar
    17    10    11   ar
    18    11    20    1
    19    20    21    1
    20    21    22    1
    21    21    23    1
    22    23    24    2
    23    23    25    1
    24    25    30   ar
    25    25    26   ar
    26    26    27   ar
    27    27    28   ar
    28    28    29   ar
    29    28    31    1
    30    29    30   ar
    31    31    32    1
    32    12    13    2
    33    12    14    1
    34    14    15    1
@<TRIPOS>MOLECULE
ZINC11788840
 32 34 0 0 0
SMALL
GASTEIGER

@<TRIPOS>ATOM
      1 C          22.1591   38.6124   28.5841 C.ar    1  UNL1        0.0837
      2 C          23.3065   39.2717   28.2008 C.ar    1  UNL1       -0.1081
      3 C          24.5863   38.7483   28.6511 C.ar    1  UNL1        0.0017
      4 C          25.8874   39.2468   28.3907 C.ar    1  UNL1        0.0016
      5 C          26.9714   38.5926   28.9262 C.ar    1  UNL1        0.0206
      6 C          26.7921   37.4585   29.7050 C.ar    1  UNL1        0.1145
      7 N          25.5807   36.9948   29.9410 N.ar    1  UNL1       -0.2374
      8 C          24.5119   37.5854   29.4511 C.ar    1  UNL1        0.1089
      9 S          22.7712   37.2513   29.5580 S.2     1  UNL1       -0.0634
     10 C          20.8147   38.9336   28.2704 C.2     1  UNL1        0.3456
     11 O          20.3509   38.6216   27.1896 O.2     1  UNL1       -0.2444
     12 C          19.3300   38.7853   30.1111 C.3     1  UNL1        0.2560
     13 O          20.0490   39.5854   29.1704 O.3     1  UNL1       -0.4410
     14 C          27.9902   36.7524   30.2856 C.3     1  UNL1        0.1528
     15 N          27.5205   35.6692   31.1748 N.4     1  UNL1        0.2873
     16 H          26.5015   35.6350   31.1458 H       1  UNL1        0.2079
     17 C          28.0578   34.3707   30.7164 C.3     1  UNL1        0.1335
     18 C          27.0118   33.6093   29.9434 C.2     1  UNL1        0.0342
     19 C          27.1140   33.4934   28.6426 C.2     1  UNL1        0.0011
     20 C          27.9525   35.9326   32.5636 C.3     1  UNL1        0.1335
     21 C          26.7398   36.2702   33.3921 C.2     1  UNL1        0.0342
     22 C          25.6536   35.5452   33.2889 C.2     1  UNL1        0.0011
     23 N          23.2423   40.4084   27.4032 N.am    1  UNL1       -0.6102
     24 C          23.1790   41.6284   27.9726 C.2     1  UNL1        0.0822
     25 O          22.1524   41.9958   28.5102 O.2     1  UNL1       -0.3129
     26 C          24.3571   42.5192   27.9433 C.ar    1  UNL1        0.0261
     27 C          24.6625   43.3150   29.0495 C.ar    1  UNL1        0.0021
     28 C          25.7664   44.1407   29.0174 C.ar    1  UNL1        0.0001
     29 C          26.5658   44.1904   27.8884 C.ar    1  UNL1        0.0009
     30 C          26.2675   43.4096   26.7869 C.ar    1  UNL1        0.0114
     31 C          25.1678   42.5737   26.8067 C.ar    1  UNL1        0.0589
     32 CL         24.7938   41.5942   25.4231 Cl      1  UNL1       -0.0822
@<TRIPOS>UNITY_ATOM_ATTR
15 1
charge 1
23 1
charge -1
@<TRIPOS>BOND
     1    12    13    1
     2    13    10    1
     3    10    11    2
     4    10     1    1
     5     1     9   ar
     6     1     2   ar
     7     2     3   ar
     8     2    23    1
     9     3     8   ar
    10     3     4   ar
    11     4     5   ar
    12     5     6   ar
    13     6     7   ar
    14     6    14    1
    15     7     8   ar
    16     8     9   ar
    17    14    15    1
    18    17    18    1
    19    17    15    1
    20    18    19    2
    21    20    21    1
    22    20    15    1
    23    21    22    2
    24    23    24    1
    25    24    25    2
    26    24    26    1
    27    26    31   ar
    28    26    27   ar
    29    27    28   ar
    30    28    29   ar
    31    29    30   ar
    32    30    31   ar
    33    31    32    1
    34    15    16    1
@<TRIPOS>MOLECULE
ZINC06178430
 33 35 0 0 0
SMALL
GASTEIGER

@<TRIPOS>ATOM
      1 O          24.7127   37.7116   29.2953 O.3     1  UNL1       -0.4368
      2 C          23.4563   37.7440   29.7861 C.2     1  UNL1        0.3418
      3 O          23.2627   38.0751   30.9406 O.2     1  UNL1       -0.2449
      4 C          22.3617   37.3925   28.9564 C.2     1  UNL1        0.0819
      5 C          21.9739   38.2214   27.9626 C.2     1  UNL1        0.0068
      6 C          22.4929   39.5952   27.9070 C.ar    1  UNL1        0.0034
      7 C          21.8691   40.6114   28.6400 C.ar    1  UNL1        0.0033
      8 C          22.3609   41.8971   28.5902 C.ar    1  UNL1        0.0402
      9 C          23.4686   42.1908   27.8059 C.ar    1  UNL1        0.1779
     10 C          24.0922   41.1851   27.0682 C.ar    1  UNL1        0.1726
     11 C          23.6092   39.8924   27.1163 C.ar    1  UNL1        0.0401
     12 O          25.1767   41.4774   26.3015 O.3     1  UNL1       -0.4684
     13 C          24.9681   41.5696   24.8908 C.3     1  UNL1        0.2526
     14 O          23.9458   43.4615   27.7567 O.3     1  UNL1       -0.4205
     15 C          24.7446   43.8975   28.8584 C.3     1  UNL1        0.5087
     16 F          23.9206   44.4652   29.8361 F       1  UNL1       -0.1550
     17 F          25.4269   42.8036   29.4015 F       1  UNL1       -0.1550
     18 C          25.7810   37.7626   30.2429 C.3     1  UNL1        0.2770
     19 C          27.0455   37.2507   29.6026 C.2     1  UNL1        0.2180
     20 O          28.1267   37.5407   30.0760 O.2     1  UNL1       -0.2874
     21 C          28.3572   34.6568   30.6552 C.3     1  UNL1        0.0101
     22 C          27.0881   34.3048   29.8764 C.3     1  UNL1        0.0516
     23 C          27.1246   32.8613   29.4300 C.ar    1  UNL1       -0.0042
     24 C          27.1854   31.6721   30.1219 C.ar    1  UNL1       -0.0027
     25 C          27.2070   30.4722   29.4328 C.ar    1  UNL1       -0.0002
     26 C          27.1674   30.4719   28.0502 C.ar    1  UNL1        0.0013
     27 C          27.1064   31.6611   27.3543 C.ar    1  UNL1        0.0145
     28 C          27.0843   32.8742   28.0415 C.ar    1  UNL1        0.0477
     29 N          27.0260   34.1845   27.5697 N.pl3   1  UNL1       -0.2884
     30 C          27.0242   35.0906   28.5840 C.2     1  UNL1        0.0348
     31 C          26.9746   36.4398   28.4611 C.2     1  UNL1        0.0520
     32 C          26.9738   34.5430   26.1502 C.3     1  UNL1        0.1170
     33 C          25.8447   34.5711   30.7273 C.3     1  UNL1        0.0101
@<TRIPOS>BOND
     1    21    22    1
     2    22    30    1
     3    22    23    1
     4    22    33    1
     5    23    28   ar
     6    23    24   ar
     7    24    25   ar
     8    25    26   ar
     9    26    27   ar
    10    27    28   ar
    11    28    29    1
    12    29    30    1
    13    29    32    1
    14    30    31    2
    15    31    19    1
    16    19    20    2
    17    19    18    1
    18    18     1    1
    19     1     2    1
    20     2     3    2
    21     2     4    1
    22     4     5    2
    23     5     6    1
    24     6    11   ar
    25     6     7   ar
    26     7     8   ar
    27     8     9   ar
    28     9    10   ar
    29     9    14    1
    30    10    11   ar
    31    10    12    1
    32    12    13    1
    33    14    15    1
    34    15    16    1
    35    15    17    1
@<TRIPOS>MOLECULE
ZINC28032560
 32 34 0 0 0
SMALL
GASTEIGER

@<TRIPOS>ATOM
      1 C          20.5523   37.6222   29.2463 C.2     1  UNL1        0.3290
      2 O          20.4488   36.7782   28.3880 O.2     1  UNL1       -0.2491
      3 O          19.4589   38.0677   29.8849 O.3     1  UNL1       -0.4393
      4 C          19.6362   39.1858   30.7941 C.3     1  UNL1        0.2767
      5 C          18.9814   38.8687   32.1139 C.2     1  UNL1        0.2199
      6 O          19.4410   38.0009   32.8259 O.2     1  UNL1       -0.2873
      7 C          14.0435   39.5173   31.9852 C.3     1  UNL1        0.0310
      8 C          15.4060   39.9288   32.4804 C.ar    1  UNL1       -0.0216
      9 C          15.5307   41.0140   33.3339 C.ar    1  UNL1       -0.0011
     10 C          16.7725   41.4023   33.7953 C.ar    1  UNL1        0.0369
     11 C          17.9079   40.7069   33.4064 C.ar    1  UNL1        0.1471
     12 C          17.7875   39.6100   32.5378 C.ar    1  UNL1        0.0723
     13 C          16.5205   39.2252   32.0825 C.ar    1  UNL1        0.0018
     14 O          19.1283   41.0877   33.8583 O.3     1  UNL1       -0.4235
     15 C          19.4839   40.6868   35.1830 C.3     1  UNL1        0.5087
     16 F          20.8669   40.4885   35.2549 F       1  UNL1       -0.1550
     17 F          19.1082   41.6846   36.0888 F       1  UNL1       -0.1550
     18 C          21.9090   38.1747   29.6001 C.3     1  UNL1        0.1743
     19 S          23.0224   37.9926   28.1847 S.3     1  UNL1       -0.0619
     20 C          24.3689   38.9931   28.7240 C.ar    1  UNL1        0.2152
     21 N          24.5437   40.2727   28.4725 N.ar    1  UNL1       -0.1011
     22 N          25.6271   40.6950   29.0171 N.ar    1  UNL1       -0.0218
     23 N          26.2233   39.7369   29.6396 N.ar    1  UNL1       -0.0382
     24 N          25.4301   38.5877   29.4757 N.ar    1  UNL1       -0.1865
     25 C          25.6779   37.3021   29.9777 C.ar    1  UNL1        0.0823
     26 C          25.2724   36.9669   31.2627 C.ar    1  UNL1        0.0147
     27 C          25.5127   35.6981   31.7522 C.ar    1  UNL1       -0.0204
     28 C          26.1667   34.7654   30.9680 C.ar    1  UNL1       -0.0045
     29 C          26.5767   35.0979   29.6903 C.ar    1  UNL1       -0.0031
     30 C          26.3340   36.3637   29.1931 C.ar    1  UNL1       -0.0041
     31 C          26.7817   36.7256   27.8004 C.3     1  UNL1        0.0326
     32 C          25.0678   35.3318   33.1446 C.3     1  UNL1        0.0311
@<TRIPOS>BOND
     1     7     8    1
     2     8    13   ar
     3     8     9   ar
     4     9    10   ar
     5    10    11   ar
     6    11    12   ar
     7    11    14    1
     8    12    13   ar
     9    12     5    1
    10     5     6    2
    11     5     4    1
    12     4     3    1
    13     3     1    1
    14     1     2    2
    15     1    18    1
    16    18    19    1
    17    19    20    1
    18    20    24   ar
    19    20    21   ar
    20    21    22   ar
    21    22    23   ar
    22    23    24   ar
    23    24    25    1
    24    25    30   ar
    25    25    26   ar
    26    26    27   ar
    27    27    28   ar
    28    27    32    1
    29    28    29   ar
    30    29    30   ar
    31    30    31    1
    32    14    15    1
    33    15    16    1
    34    15    17    1
@<TRIPOS>MOLECULE
ZINC02969103
 32 35 0 0 0
SMALL
GASTEIGER

@<TRIPOS>ATOM
      1 C          22.4182   40.8120   28.2177 C.ar    1  UNL1        0.1931
      2 N          22.3746   42.0630   28.5998 N.ar    1  UNL1       -0.2210
      3 C          23.4883   42.8304   28.6719 C.ar    1  UNL1        0.0864
      4 C          23.4271   44.1652   29.0823 C.ar    1  UNL1        0.0193
      5 C          24.5799   44.9141   29.1447 C.ar    1  UNL1        0.0015
      6 C          25.8069   44.3601   28.8036 C.ar    1  UNL1        0.0002
      7 C          25.8934   43.0471   28.3957 C.ar    1  UNL1        0.0046
      8 C          24.7392   42.2704   28.3257 C.ar    1  UNL1        0.0537
      9 C          24.7700   40.8665   27.8989 C.ar    1  UNL1        0.1690
     10 N          23.5823   40.1859   27.8634 N.ar    1  UNL1       -0.1878
     11 N          23.8894   38.8894   27.4292 N.ar    1  UNL1       -0.1424
     12 C          25.1915   38.8472   27.2306 C.ar    1  UNL1        0.1865
     13 N          25.7210   40.0409   27.5207 N.ar    1  UNL1       -0.2058
     14 C          25.9511   37.6612   26.7651 C.ar    1  UNL1        0.0715
     15 C          26.1706   36.5887   27.6264 C.ar    1  UNL1        0.0061
     16 C          26.8775   35.4873   27.1885 C.ar    1  UNL1        0.0003
     17 C          27.3744   35.4464   25.8975 C.ar    1  UNL1        0.0031
     18 C          27.1575   36.5023   25.0331 C.ar    1  UNL1        0.0370
     19 C          26.4493   37.6146   25.4597 C.ar    1  UNL1        0.1417
     20 O          26.2398   38.6555   24.6126 O.3     1  UNL1       -0.4713
     21 C          27.3926   39.3771   24.1740 C.3     1  UNL1        0.2525
     22 S          20.9146   39.8955   28.1563 S.3     1  UNL1       -0.0651
     23 C          21.1188   38.8575   29.6249 C.3     1  UNL1        0.1533
     24 C          21.3601   37.4313   29.2023 C.2     1  UNL1        0.3271
     25 O          20.5130   36.8333   28.5821 O.2     1  UNL1       -0.2492
     26 O          22.5163   36.8251   29.5151 O.3     1  UNL1       -0.4479
     27 C          23.4046   37.5282   30.4233 C.3     1  UNL1        0.2086
     28 C          24.4545   36.5557   30.9645 C.3     1  UNL1        0.0513
     29 C          19.8521   38.9288   30.4800 C.3     1  UNL1        0.0225
     30 C          20.2116   39.4191   31.8841 C.3     1  UNL1        0.0015
     31 C          19.4955   38.8679   34.2134 C.3     1  UNL1        0.0000
     32 C          19.0080   39.2381   32.8112 C.3     1  UNL1        0.0000
@<TRIPOS>BOND
     1    31    32    1
     2    32    30    1
     3    30    29    1
     4    29    23    1
     5    23    24    1
     6    23    22    1
     7    24    25    2
     8    24    26    1
     9    26    27    1
    10    27    28    1
    11    22     1    1
    12     1    10   ar
    13     1     2   ar
    14     2     3   ar
    15     3     8   ar
    16     3     4   ar
    17     4     5   ar
    18     5     6   ar
    19     6     7   ar
    20     7     8   ar
    21     8     9   ar
    22     9    13   ar
    23     9    10   ar
    24    10    11   ar
    25    11    12   ar
    26    12    13   ar
    27    12    14    1
    28    14    19   ar
    29    14    15   ar
    30    15    16   ar
    31    16    17   ar
    32    17    18   ar
    33    18    19   ar
    34    19    20    1
    35    20    21    1
@<TRIPOS>MOLECULE
ZINC29874984
 30 33 0 0 0
SMALL
GASTEIGER

@<TRIPOS>ATOM
      1 N          23.5872   39.3206   28.5376 N.ar    1  UNL1       -0.2757
      2 C          24.8514   38.8661   28.6260 C.ar    1  UNL1        0.2639
      3 O          25.7324   39.3481   27.9350 O.2     1  UNL1       -0.2669
      4 C          25.1444   37.8091   29.5439 C.ar    1  UNL1        0.0762
      5 C          26.4440   37.1660   29.7992 C.ar    1  UNL1       -0.0136
      6 C          26.4672   36.1875   30.7180 C.ar    1  UNL1        0.0049
      7 S          24.7898   36.0557   31.2931 S.2     1  UNL1       -0.0725
      8 C          24.0613   37.3252   30.2916 C.ar    1  UNL1        0.1168
      9 N          22.8348   37.8175   30.1578 N.ar    1  UNL1       -0.2158
     10 C          22.5908   38.7950   29.3082 C.ar    1  UNL1        0.1740
     11 C          27.8453   35.6096   30.8983 C.3     1  UNL1        0.0330
     12 C          28.7901   36.6556   30.2668 C.3     1  UNL1        0.0099
     13 C          27.8609   37.3397   29.2449 C.3     1  UNL1        0.0271
     14 C          23.2765   40.4036   27.6012 C.3     1  UNL1        0.1110
     15 C          23.7816   41.7307   28.1708 C.3     1  UNL1        0.0247
     16 C          22.5886   42.6225   28.5207 C.3     1  UNL1        0.0020
     17 C          24.5706   43.9529   29.2583 C.3     1  UNL1        0.0000
     18 C          23.0879   44.0216   28.8870 C.3     1  UNL1        0.0001
     19 S          20.9534   39.4287   29.1608 S.3     1  UNL1       -0.0754
     20 C          20.2329   38.7982   30.6969 C.3     1  UNL1        0.0908
     21 C          20.2461   39.9014   31.7569 C.3     1  UNL1        0.1680
     22 S          19.3954   39.3169   33.2487 S.O2    1  UNL1        0.0096
     23 O          19.2652   37.9022   33.2152 O.2     1  UNL1       -0.1686
     24 O          19.9185   39.9692   34.3977 O.2     1  UNL1       -0.1686
     25 C          17.7482   39.9239   33.0979 C.ar    1  UNL1        0.1057
     26 C          17.3397   41.0086   33.8512 C.ar    1  UNL1        0.0183
     27 C          16.0488   41.4878   33.7292 C.ar    1  UNL1        0.0013
     28 C          15.1635   40.8761   32.8615 C.ar    1  UNL1        0.0001
     29 C          15.5704   39.7877   32.1126 C.ar    1  UNL1        0.0013
     30 C          16.8627   39.3118   32.2306 C.ar    1  UNL1        0.0183
@<TRIPOS>BOND
     1    17    18    1
     2    18    16    1
     3    16    15    1
     4    15    14    1
     5    14     1    1
     6     1    10   ar
     7     1     2   ar
     8     2     3    2
     9     2     4   ar
    10     4     8   ar
    11     4     5   ar
    12     5    13    1
    13     5     6   ar
    14     6     7   ar
    15     6    11    1
    16     7     8   ar
    17     8     9   ar
    18     9    10   ar
    19    10    19    1
    20    19    20    1
    21    20    21    1
    22    21    22    1
    23    22    23    2
    24    22    24    2
    25    22    25    1
    26    25    30   ar
    27    25    26   ar
    28    26    27   ar
    29    27    28   ar
    30    28    29   ar
    31    29    30   ar
    32    11    12    1
    33    12    13    1
@<TRIPOS>MOLECULE
ZINC02834067
 30 32 0 0 0
SMALL
GASTEIGER

@<TRIPOS>ATOM
      1 C          25.7785   35.5437   32.3105 C.ar    1  UNL1        0.0057
      2 C          26.4316   34.4119   31.8031 C.ar    1  UNL1        0.0402
      3 C          27.6198   33.9941   32.3676 C.ar    1  UNL1        0.1733
      4 C          28.1690   34.6970   33.4397 C.ar    1  UNL1        0.1831
      5 C          27.5235   35.8193   33.9445 C.ar    1  UNL1        0.0946
      6 C          26.3390   36.2475   33.3847 C.ar    1  UNL1        0.0147
      7 CL         28.2145   36.6885   35.2789 Cl      1  UNL1       -0.0790
      8 C          23.4259   37.9874   28.9434 C.2     1  UNL1        0.1491
      9 N          23.4168   37.1658   29.9642 N.2     1  UNL1       -0.2282
     10 C          24.5303   36.8561   30.6436 C.2     1  UNL1        0.1277
     11 C          24.5167   35.9931   31.7155 C.2     1  UNL1        0.0231
     12 C          25.7762   37.5015   30.1684 C.2     1  UNL1        0.2448
     13 O          26.9145   37.4037   30.5899 O.2     1  UNL1       -0.2777
     14 S          25.1405   38.4637   28.8023 S.3     1  UNL1       -0.0184
     15 S          22.0672   38.5002   27.9455 S.3     1  UNL1        0.0190
     16 C          20.8384   37.3627   28.4939 C.2     1  UNL1        0.3759
     17 O          20.5444   36.4065   27.8041 O.2     1  UNL1       -0.2369
     18 O          20.2252   37.5529   29.6777 O.3     1  UNL1       -0.4408
     19 C          20.1865   39.1730   31.4955 C.3     1  UNL1        0.0513
     20 C          19.8650   38.9169   30.0218 C.3     1  UNL1        0.2094
     21 O          28.2559   32.8964   31.8777 O.3     1  UNL1       -0.4683
     22 C          27.5268   31.6674   31.8839 C.3     1  UNL1        0.2526
     23 O          29.3386   34.2828   33.9928 O.3     1  UNL1       -0.4667
     24 C          29.2841   33.1340   34.8412 C.3     1  UNL1        0.2322
     25 C          28.9393   33.5617   36.2444 C.ar    1  UNL1        0.0212
     26 C          29.9214   34.0729   37.0722 C.ar    1  UNL1       -0.0007
     27 C          29.6041   34.4701   38.3576 C.ar    1  UNL1       -0.0002
     28 C          28.3069   34.3459   38.8191 C.ar    1  UNL1       -0.0000
     29 C          27.3260   33.8294   37.9931 C.ar    1  UNL1       -0.0002
     30 C          27.6422   33.4375   36.7058 C.ar    1  UNL1       -0.0007
@<TRIPOS>BOND
     1    19    20    1
     2    20    18    1
     3    18    16    1
     4    16    17    2
     5    16    15    1
     6    15     8    1
     7     8    14    1
     8     8     9    2
     9     9    10    1
    10    10    11    2
    11    10    12    1
    12    11     1    1
    13     1     6   ar
    14     1     2   ar
    15     2     3   ar
    16     3     4   ar
    17     3    21    1
    18     4     5   ar
    19     4    23    1
    20     5     6   ar
    21     5     7    1
    22    23    24    1
    23    24    25    1
    24    25    30   ar
    25    25    26   ar
    26    26    27   ar
    27    27    28   ar
    28    28    29   ar
    29    29    30   ar
    30    21    22    1
    31    12    13    2
    32    12    14    1
@<TRIPOS>MOLECULE
ZINC08765568
 31 32 0 0 0
SMALL
GASTEIGER

@<TRIPOS>ATOM
      1 C          20.2336   38.3289   29.7687 C.2     1  UNL1        0.0111
      2 C          19.9592   38.8114   31.0062 C.2     1  UNL1        0.0849
      3 C          18.6556   38.9651   31.6924 C.2     1  UNL1        0.2595
      4 O          17.6103   38.6424   31.1604 O.2     1  UNL1       -0.2690
      5 N          18.6878   39.4712   32.9137 N.am    1  UNL1       -0.2441
      6 C          19.8484   39.8323   33.4973 C.2     1  UNL1        0.1212
      7 S          20.0910   40.5049   35.0528 S.2     1  UNL1       -0.0272
      8 S          21.0716   39.4368   32.2582 S.3     1  UNL1       -0.0604
      9 C          24.1610   38.6071   28.2104 C.ar    1  UNL1        0.0756
     10 C          23.7989   37.5118   29.0006 C.ar    1  UNL1        0.0064
     11 C          22.5325   37.4209   29.5038 C.ar    1  UNL1        0.0002
     12 C          21.5963   38.4254   29.2280 C.ar    1  UNL1        0.0006
     13 C          21.9585   39.5191   28.4315 C.ar    1  UNL1        0.0002
     14 C          23.2273   39.6105   27.9343 C.ar    1  UNL1        0.0064
     15 C          25.5302   38.7042   27.6675 C.2     1  UNL1        0.3413
     16 O          25.9181   39.7476   27.1808 O.2     1  UNL1       -0.2449
     17 C          26.4136   36.8042   26.5231 C.3     1  UNL1        0.2560
     18 O          26.3498   37.6357   27.7117 O.3     1  UNL1       -0.4413
     19 C          17.4324   39.6493   33.6475 C.3     1  UNL1        0.0995
     20 C          16.8935   41.0599   33.4015 C.3     1  UNL1        0.0219
     21 C          15.3831   40.9951   33.1662 C.3     1  UNL1        0.0018
     22 C          14.9484   39.5334   33.0429 C.3     1  UNL1        0.0001
     23 C          14.3869   39.2848   31.6415 C.3     1  UNL1        0.0000
     24 C          12.8843   39.5735   31.6355 C.3     1  UNL1        0.0000
     25 C          12.1442   38.4102   30.9722 C.3     1  UNL1        0.0000
     26 C          13.1293   37.5878   30.1392 C.3     1  UNL1        0.0004
     27 C          12.9300   37.9034   28.6553 C.3     1  UNL1        0.0059
     28 C          11.7037   37.1514   28.1342 C.3     1  UNL1        0.0417
     29 C          11.7351   37.1222   26.6278 C.2     1  UNL1        0.0503
     30 O          11.2101   36.2127   26.0302 O.co2   1  UNL1       -0.5492
     31 O          12.3462   38.1063   25.9499 O.co2   1  UNL1       -0.5492
@<TRIPOS>UNITY_ATOM_ATTR
31 1
charge -1
@<TRIPOS>BOND
     1    17    18    1
     2    18    15    1
     3    15    16    2
     4    15     9    1
     5     9    14   ar
     6     9    10   ar
     7    10    11   ar
     8    11    12   ar
     9    12    13   ar
    10    12     1    1
    11    13    14   ar
    12     1     2    2
    13     2     8    1
    14     2     3    1
    15     3     4    2
    16     3     5   am
    17     5     6    1
    18     5    19    1
    19     6     7    2
    20     6     8    1
    21    19    20    1
    22    20    21    1
    23    21    22    1
    24    22    23    1
    25    23    24    1
    26    24    25    1
    27    25    26    1
    28    26    27    1
    29    27    28    1
    30    28    29    1
    31    29    30   ar
    32    29    31   ar
@<TRIPOS>MOLECULE
ZINC03467959
 32 34 0 0 0
SMALL
GASTEIGER

@<TRIPOS>ATOM
      1 C          24.6281   39.1123   28.1334 C.ar    1  UNL1        0.1254
      2 C          24.2122   38.7883   29.4128 C.ar    1  UNL1        0.0204
      3 C          22.9850   38.1909   29.6119 C.ar    1  UNL1        0.0078
      4 C          22.1662   37.9037   28.5179 C.ar    1  UNL1        0.0757
      5 C          22.5943   38.2286   27.2292 C.ar    1  UNL1        0.0078
      6 C          23.8218   38.8305   27.0448 C.ar    1  UNL1        0.0204
      7 S          26.1947   39.8808   27.8888 S.O2    1  UNL1        0.0766
      8 O          26.8826   39.1012   26.9200 O.2     1  UNL1       -0.1497
      9 O          26.7286   40.1350   29.1810 O.2     1  UNL1       -0.1497
     10 N          25.9126   41.3575   27.1944 N.pl3   1  UNL1       -0.1906
     11 C          25.2744   42.3623   27.9251 C.ar    1  UNL1        0.0688
     12 C          26.0195   43.3800   28.5070 C.ar    1  UNL1        0.0161
     13 C          25.3854   44.3717   29.2293 C.ar    1  UNL1        0.0013
     14 C          24.0101   44.3524   29.3734 C.ar    1  UNL1        0.0001
     15 C          23.2653   43.3408   28.7954 C.ar    1  UNL1        0.0013
     16 C          23.8931   42.3458   28.0719 C.ar    1  UNL1        0.0161
     17 C          25.1310   41.4560   24.8790 C.3     1  UNL1        0.0252
     18 C          26.3324   41.6100   25.8137 C.3     1  UNL1        0.1159
     19 C          20.8528   37.2594   28.7230 C.2     1  UNL1        0.3416
     20 O          20.3890   36.5384   27.8625 O.2     1  UNL1       -0.2449
     21 O          20.1693   37.4715   29.8644 O.3     1  UNL1       -0.4368
     22 C          19.5483   38.7736   30.0286 C.3     1  UNL1        0.2769
     23 C          18.3567   38.6502   30.9428 C.2     1  UNL1        0.2167
     24 O          17.4179   37.9519   30.6243 O.2     1  UNL1       -0.2874
     25 C          18.3323   39.3771   32.2222 C.ar    1  UNL1        0.0342
     26 C          19.5064   39.5284   32.9673 C.ar    1  UNL1       -0.0016
     27 C          19.4765   40.2157   34.1619 C.ar    1  UNL1       -0.0218
     28 C          18.2864   40.7453   34.6303 C.ar    1  UNL1       -0.0046
     29 C          17.1196   40.5949   33.9019 C.ar    1  UNL1       -0.0045
     30 C          17.1341   39.9151   32.7021 C.ar    1  UNL1       -0.0190
     31 C          15.8624   39.7528   31.9100 C.3     1  UNL1        0.0311
     32 C          20.7414   40.3848   34.9635 C.3     1  UNL1        0.0310
@<TRIPOS>BOND
     1    17    18    1
     2    18    10    1
     3    10    11    1
     4    10     7    1
     5    11    16   ar
     6    11    12   ar
     7    12    13   ar
     8    13    14   ar
     9    14    15   ar
    10    15    16   ar
    11     7     8    2
    12     7     9    2
    13     7     1    1
    14     1     6   ar
    15     1     2   ar
    16     2     3   ar
    17     3     4   ar
    18     4     5   ar
    19     4    19    1
    20     5     6   ar
    21    19    20    2
    22    19    21    1
    23    21    22    1
    24    22    23    1
    25    23    24    2
    26    23    25    1
    27    25    30   ar
    28    25    26   ar
    29    26    27   ar
    30    27    28   ar
    31    27    32    1
    32    28    29   ar
    33    29    30   ar
    34    30    31    1
@<TRIPOS>MOLECULE
ZINC25491854
 34 36 0 0 0
SMALL
GASTEIGER

@<TRIPOS>ATOM
      1 C          23.5511   41.1837   27.7071 C.ar    1  UNL1        0.1917
      2 N          22.4745   41.1607   28.4248 N.ar    1  UNL1       -0.1440
      3 N          21.7762   39.9826   28.1263 N.ar    1  UNL1       -0.1774
      4 C          22.4982   39.3108   27.2052 C.ar    1  UNL1        0.1851
      5 S          22.0937   37.8028   26.5029 S.2     1  UNL1       -0.0110
      6 N          23.5970   40.0457   26.9401 N.ar    1  UNL1       -0.2860
      7 C          24.5880   42.2773   27.7164 C.3     1  UNL1        0.1151
      8 N          25.9055   41.7004   28.0152 N.4     1  UNL1        0.2862
      9 C          26.9677   42.4100   27.2898 C.3     1  UNL1        0.1677
     10 C          26.1647   41.7007   29.4611 C.3     1  UNL1        0.1677
     11 H          25.9025   40.7312   27.6975 H       1  UNL1        0.2074
     12 C          24.0216   44.6759   28.1263 C.3     1  UNL1        0.0066
     13 C          24.2295   43.3111   28.7858 C.3     1  UNL1        0.0631
     14 C          24.6584   39.6908   25.9948 C.3     1  UNL1        0.1360
     15 C          24.3416   40.2738   24.6417 C.ar    1  UNL1        0.0005
     16 C          24.8637   41.5010   24.2783 C.ar    1  UNL1       -0.0024
     17 C          24.5770   42.0335   23.0352 C.ar    1  UNL1       -0.0003
     18 C          23.7596   41.3436   22.1597 C.ar    1  UNL1       -0.0000
     19 C          23.2331   40.1188   22.5250 C.ar    1  UNL1       -0.0003
     20 C          23.5241   39.5838   23.7660 C.ar    1  UNL1       -0.0024
     21 C          20.5013   39.5572   28.7094 C.3     1  UNL1        0.2437
     22 N          20.7217   39.1008   30.0882 N.4     1  UNL1        0.3031
     23 C          22.0261   38.4384   30.2213 C.3     1  UNL1        0.1698
     24 H          20.7239   39.9217   30.6935 H       1  UNL1        0.2096
     25 C          19.6347   38.2169   30.5302 C.3     1  UNL1        0.1353
     26 C          18.8860   38.8695   31.6636 C.ar    1  UNL1        0.0344
     27 C          17.5121   39.0086   31.5951 C.ar    1  UNL1        0.0015
     28 C          16.8250   39.6035   32.6363 C.ar    1  UNL1        0.0016
     29 C          17.5124   40.0674   33.7425 C.ar    1  UNL1        0.0241
     30 C          18.8864   39.9326   33.8090 C.ar    1  UNL1        0.1428
     31 C          19.5733   39.3340   32.7691 C.ar    1  UNL1        0.0255
     32 N          19.6224   40.4296   34.9931 N.pl3   1  UNL1        0.0577
     33 O          19.3933   41.5437   35.4291 O.2     1  UNL1       -0.1261
     34 O          20.4571   39.7248   35.5314 O.2     1  UNL1       -0.1261
@<TRIPOS>UNITY_ATOM_ATTR
8 1
charge 1
22 1
charge 1
@<TRIPOS>BOND
     1    12    13    1
     2    13     7    1
     3     7     1    1
     4     7     8    1
     5     1     6   ar
     6     1     2   ar
     7     2     3   ar
     8     3     4   ar
     9     3    21    1
    10     4     5    2
    11     4     6   ar
    12     6    14    1
    13    14    15    1
    14    15    20   ar
    15    15    16   ar
    16    16    17   ar
    17    17    18   ar
    18    18    19   ar
    19    19    20   ar
    20    21    22    1
    21    22    23    1
    22    22    25    1
    23    25    26    1
    24    26    31   ar
    25    26    27   ar
    26    27    28   ar
    27    28    29   ar
    28    29    30   ar
    29    30    31   ar
    30    30    32    1
    31    32    33    2
    32    32    34    2
    33     8     9    1
    34     8    10    1
    35    22    24    1
    36     8    11    1
@<TRIPOS>MOLECULE
ZINC02352710
 30 31 0 0 0
SMALL
GASTEIGER

@<TRIPOS>ATOM
      1 C          24.4422   38.8003   28.8377 C.ar    1  UNL1        0.1137
      2 C          23.2989   38.0969   29.2574 C.ar    1  UNL1       -0.0445
      3 N          23.4026   37.0918   30.0926 N.ar    1  UNL1       -0.2785
      4 C          24.6079   36.7218   30.5440 C.ar    1  UNL1        0.0956
      5 C          24.7467   35.6450   31.4359 C.ar    1  UNL1        0.0205
      6 C          25.9834   35.2936   31.8833 C.ar    1  UNL1        0.0016
      7 C          27.1188   35.9872   31.4694 C.ar    1  UNL1        0.0016
      8 C          27.0224   37.0357   30.6066 C.ar    1  UNL1        0.0207
      9 C          25.7623   37.4271   30.1235 C.ar    1  UNL1        0.1001
     10 N          25.6384   38.4549   29.2743 N.ar    1  UNL1       -0.2307
     11 N          24.3113   39.8643   27.9581 N.pl3   1  UNL1       -0.2945
     12 C          24.8950   41.0887   28.5223 C.3     1  UNL1        0.0921
     13 C          23.2937   43.0062   28.5596 C.3     1  UNL1        0.0018
     14 C          24.3819   42.3031   27.7458 C.3     1  UNL1        0.0198
     15 C          25.5379   43.2732   27.4944 C.3     1  UNL1        0.0018
     16 C          24.9111   39.5472   26.6552 C.3     1  UNL1        0.0921
     17 C          23.8037   39.2424   25.6445 C.3     1  UNL1        0.0198
     18 C          24.2187   39.7540   24.2635 C.3     1  UNL1        0.0018
     19 C          23.5734   37.7312   25.5804 C.3     1  UNL1        0.0018
     20 C          21.9412   38.5064   28.7472 C.2     1  UNL1       -0.0672
     21 C          21.1432   37.3042   28.4564 C.1     1  UNL1       -0.1038
     22 N          20.5273   36.3765   28.2319 N.1     1  UNL1       -0.2341
     23 C          21.2400   39.3339   29.7934 C.2     1  UNL1        0.1740
     24 O          21.0557   40.5134   29.6071 O.2     1  UNL1       -0.2892
     25 O          20.8201   38.7606   30.9322 O.3     1  UNL1       -0.4741
     26 C          19.6366   39.3241   31.5566 C.3     1  UNL1        0.1955
     27 C          18.4151   38.4786   31.1905 C.3     1  UNL1        0.0500
     28 C          19.8156   39.3305   33.0761 C.3     1  UNL1        0.1855
     29 O          18.8725   40.2296   33.6630 O.3     1  UNL1       -0.3473
     30 C          19.4684   41.3542   34.3128 C.3     1  UNL1        0.1743
@<TRIPOS>UNITY_ATOM_ATTR
20 1
charge -1
@<TRIPOS>BOND
     1    13    14    1
     2    14    15    1
     3    14    12    1
     4    12    11    1
     5    11    16    1
     6    11     1    1
     7    16    17    1
     8    17    18    1
     9    17    19    1
    10     1    10   ar
    11     1     2   ar
    12     2     3   ar
    13     2    20    1
    14     3     4   ar
    15     4     9   ar
    16     4     5   ar
    17     5     6   ar
    18     6     7   ar
    19     7     8   ar
    20     8     9   ar
    21     9    10   ar
    22    20    21    1
    23    20    23    1
    24    21    22    3
    25    23    24    2
    26    23    25    1
    27    25    26    1
    28    26    27    1
    29    26    28    1
    30    28    29    1
    31    29    30    1
@<TRIPOS>MOLECULE
ZINC16882329
 31 33 0 0 0
SMALL
GASTEIGER

@<TRIPOS>ATOM
      1 C          23.4954   38.3203   28.4403 C.ar    1  UNL1        0.0516
      2 C          22.9635   37.7660   29.5986 C.ar    1  UNL1        0.0832
      3 N          23.7256   36.9525   30.3553 N.ar    1  UNL1       -0.2325
      4 C          24.9547   36.6741   30.0225 C.ar    1  UNL1        0.1231
      5 N          25.5253   37.1904   28.9082 N.ar    1  UNL1       -0.2801
      6 C          24.8214   38.0086   28.0983 C.ar    1  UNL1        0.2594
      7 O          25.3290   38.4729   27.0902 O.2     1  UNL1       -0.2672
      8 C          25.7639   35.7582   30.9043 C.3     1  UNL1        0.0719
      9 C          21.5802   38.0645   29.9946 C.2     1  UNL1        0.0190
     10 C          21.3349   38.6998   31.1551 C.2     1  UNL1        0.0015
     11 C          19.9484   38.9990   31.5520 C.ar    1  UNL1        0.0001
     12 C          19.6926   39.7141   32.7258 C.ar    1  UNL1        0.0017
     13 C          18.3920   39.9954   33.0878 C.ar    1  UNL1        0.0241
     14 C          17.3411   39.5620   32.2985 C.ar    1  UNL1        0.1429
     15 C          17.5862   38.8488   31.1381 C.ar    1  UNL1        0.0241
     16 C          18.8816   38.5647   30.7600 C.ar    1  UNL1        0.0017
     17 N          15.9477   39.8625   32.6976 N.pl3   1  UNL1        0.0577
     18 O          15.2880   39.0236   33.2847 O.2     1  UNL1       -0.1261
     19 O          15.4609   40.9486   32.4390 O.2     1  UNL1       -0.1261
     20 C          22.6690   39.2335   27.5720 C.3     1  UNL1        0.0327
     21 C          23.0576   40.6877   27.8464 C.3     1  UNL1        0.0049
     22 C          21.8840   41.4132   28.5075 C.3     1  UNL1        0.0003
     23 C          23.7512   43.0725   28.5630 C.3     1  UNL1        0.0000
     24 C          22.2380   42.8897   28.6960 C.3     1  UNL1        0.0000
     25 C          26.9124   36.8545   28.5773 C.3     1  UNL1        0.1368
     26 C          26.9386   35.6124   27.7244 C.ar    1  UNL1        0.0005
     27 C          26.7949   35.7123   26.3531 C.ar    1  UNL1       -0.0024
     28 C          26.8237   34.5734   25.5703 C.ar    1  UNL1       -0.0003
     29 C          26.9858   33.3335   26.1596 C.ar    1  UNL1       -0.0000
     30 C          27.1243   33.2330   27.5314 C.ar    1  UNL1       -0.0003
     31 C          27.1006   34.3725   28.3137 C.ar    1  UNL1       -0.0024
@<TRIPOS>BOND
     1    23    24    1
     2    24    22    1
     3    22    21    1
     4    21    20    1
     5    20     1    1
     6     1     6   ar
     7     1     2   ar
     8     2     3   ar
     9     2     9    1
    10     3     4   ar
    11     4     5   ar
    12     4     8    1
    13     5     6   ar
    14     5    25    1
    15     6     7    2
    16    25    26    1
    17    26    31   ar
    18    26    27   ar
    19    27    28   ar
    20    28    29   ar
    21    29    30   ar
    22    30    31   ar
    23     9    10    2
    24    10    11    1
    25    11    16   ar
    26    11    12   ar
    27    12    13   ar
    28    13    14   ar
    29    14    15   ar
    30    14    17    1
    31    15    16   ar
    32    17    18    2
    33    17    19    2
@<TRIPOS>MOLECULE
ZINC26688775
 31 33 0 0 0
SMALL
GASTEIGER

@<TRIPOS>ATOM
      1 N          23.0339   38.5931   29.1533 N.ar    1  UNL1       -0.2870
      2 C          22.5041   38.3296   30.4011 C.ar    1  UNL1        0.1652
      3 N          23.4327   37.7908   31.1402 N.ar    1  UNL1       -0.1452
      4 N          24.5969   37.6862   30.3668 N.ar    1  UNL1       -0.1773
      5 C          24.3208   38.1923   29.1473 C.ar    1  UNL1        0.1852
      6 S          25.4084   38.3051   27.8300 S.2     1  UNL1       -0.0110
      7 C          21.1169   38.6165   30.8291 C.ar    1  UNL1        0.0375
      8 C          20.0450   38.2835   30.0003 C.ar    1  UNL1        0.0031
      9 C          18.7538   38.5492   30.4072 C.ar    1  UNL1        0.0018
     10 C          18.5213   39.1543   31.6295 C.ar    1  UNL1        0.0241
     11 C          19.5796   39.4870   32.4557 C.ar    1  UNL1        0.1430
     12 C          20.8755   39.2216   32.0625 C.ar    1  UNL1        0.0271
     13 N          19.3217   40.1294   33.7640 N.pl3   1  UNL1        0.0577
     14 O          19.8522   39.6952   34.7708 O.2     1  UNL1       -0.1261
     15 O          18.5791   41.0922   33.8338 O.2     1  UNL1       -0.1261
     16 C          22.3196   39.2030   28.0290 C.3     1  UNL1        0.1359
     17 C          21.7027   41.5006   28.5784 C.2     1  UNL1       -0.0029
     18 C          22.5684   40.6894   28.0228 C.2     1  UNL1       -0.0017
     19 C          25.8813   37.1342   30.8050 C.3     1  UNL1        0.2439
     20 N          25.8823   35.6788   30.6057 N.4     1  UNL1        0.3019
     21 H          25.3030   35.4736   29.7917 H       1  UNL1        0.2097
     22 C          25.2962   34.9885   31.7622 C.3     1  UNL1        0.1352
     23 C          25.7304   35.6761   33.0309 C.2     1  UNL1        0.0342
     24 C          26.2283   34.9746   34.0188 C.2     1  UNL1        0.0011
     25 C          27.2386   35.1862   30.3303 C.3     1  UNL1        0.1353
     26 C          27.1896   34.1788   29.2106 C.ar    1  UNL1        0.0327
     27 C          27.1002   34.6068   27.8993 C.ar    1  UNL1        0.0014
     28 C          27.0607   33.6827   26.8718 C.ar    1  UNL1       -0.0001
     29 C          27.0996   32.3306   27.1565 C.ar    1  UNL1       -0.0000
     30 C          27.1833   31.9026   28.4683 C.ar    1  UNL1       -0.0001
     31 C          27.2286   32.8267   29.4953 C.ar    1  UNL1        0.0014
@<TRIPOS>UNITY_ATOM_ATTR
20 1
charge 1
@<TRIPOS>BOND
     1    17    18    2
     2    18    16    1
     3    16     1    1
     4     1     5   ar
     5     1     2   ar
     6     2     3   ar
     7     2     7    1
     8     3     4   ar
     9     4     5   ar
    10     4    19    1
    11     5     6    2
    12    19    20    1
    13    20    22    1
    14    20    25    1
    15    22    23    1
    16    23    24    2
    17    25    26    1
    18    26    31   ar
    19    26    27   ar
    20    27    28   ar
    21    28    29   ar
    22    29    30   ar
    23    30    31   ar
    24     7    12   ar
    25     7     8   ar
    26     8     9   ar
    27     9    10   ar
    28    10    11   ar
    29    11    12   ar
    30    11    13    1
    31    13    14    2
    32    13    15    2
    33    20    21    1
@<TRIPOS>MOLECULE
ZINC16008303
 26 27 0 0 0
SMALL
GASTEIGER

@<TRIPOS>ATOM
      1 C          25.1382   37.9931   29.3080 C.ar    1  UNL1        0.1826
      2 C          24.6263   38.5063   28.1173 C.ar    1  UNL1        0.1731
      3 C          23.2884   38.3448   27.8142 C.ar    1  UNL1        0.0413
      4 C          22.4502   37.6661   28.7031 C.ar    1  UNL1        0.0196
      5 C          22.9678   37.1587   29.8973 C.ar    1  UNL1        0.0159
      6 C          24.3058   37.3182   30.1915 C.ar    1  UNL1        0.0946
      7 CL         24.9491   36.6809   31.6726 Cl      1  UNL1       -0.0790
      8 C          21.0202   37.4910   28.3836 C.2     1  UNL1        0.0828
      9 O          20.6147   36.4189   27.9772 O.2     1  UNL1       -0.3129
     10 N          20.1635   38.5193   28.5420 N.am    1  UNL1       -0.5887
     11 C          19.5010   38.6928   29.7535 C.ar    1  UNL1        0.0183
     12 N          18.2249   38.5197   30.0574 N.ar    1  UNL1       -0.1652
     13 N          17.7811   38.7238   31.2202 N.ar    1  UNL1       -0.1363
     14 C          18.5662   39.1244   32.2095 C.ar    1  UNL1        0.1580
     15 S          20.1306   39.2218   31.3441 S.2     1  UNL1       -0.0641
     16 S          18.1797   39.4700   33.8935 S.3     1  UNL1       -0.0819
     17 C          19.6476   38.9151   34.8034 C.3     1  UNL1        0.0901
     18 C          20.4232   40.1141   35.2849 C.2     1  UNL1       -0.0141
     19 C          19.8732   41.3028   35.2607 C.2     1  UNL1       -0.0040
     20 O          26.4540   38.1532   29.6046 O.3     1  UNL1       -0.4715
     21 C          27.3727   37.2481   28.9888 C.3     1  UNL1        0.2056
     22 C          27.8486   35.0351   30.0462 C.3     1  UNL1        0.0040
     23 C          28.1813   36.5283   30.0699 C.3     1  UNL1        0.0473
     24 O          25.4442   39.1663   27.2541 O.3     1  UNL1       -0.4724
     25 C          25.6684   40.5549   27.5061 C.3     1  UNL1        0.2057
     26 C          24.7730   41.3907   26.5893 C.3     1  UNL1        0.0512
@<TRIPOS>UNITY_ATOM_ATTR
10 1
charge -1
@<TRIPOS>BOND
     1    22    23    1
     2    23    21    1
     3    21    20    1
     4    20     1    1
     5     1     6   ar
     6     1     2   ar
     7     2     3   ar
     8     2    24    1
     9     3     4   ar
    10     4     5   ar
    11     4     8    1
    12     5     6   ar
    13     6     7    1
    14     8     9    2
    15     8    10    1
    16    10    11    1
    17    11    15   ar
    18    11    12   ar
    19    12    13   ar
    20    13    14   ar
    21    14    15   ar
    22    14    16    1
    23    16    17    1
    24    17    18    1
    25    18    19    2
    26    24    25    1
    27    25    26    1
@<TRIPOS>MOLECULE
ZINC11925431
 29 30 0 0 0
SMALL
GASTEIGER

@<TRIPOS>ATOM
      1 S          21.2298   38.1938   28.1878 S.O2    1  UNL1       -0.0551
      2 O          21.0846   39.6006   28.3257 O.2     1  UNL1       -0.1841
      3 O          20.9224   37.5108   26.9802 O.2     1  UNL1       -0.1841
      4 C          22.9108   37.8219   28.5629 C.ar    1  UNL1        0.1231
      5 C          23.3530   37.1393   29.6443 C.ar    1  UNL1        0.1130
      6 N          24.6985   37.0712   29.5658 N.ar    1  UNL1       -0.2504
      7 N          25.0956   37.7255   28.3924 N.ar    1  UNL1       -0.1724
      8 C          24.0234   38.1749   27.7922 C.ar    1  UNL1        0.0950
      9 C          23.9925   38.9403   26.4945 C.3     1  UNL1        0.0384
     10 C          23.5339   40.3756   26.7597 C.3     1  UNL1        0.0060
     11 C          25.3934   38.9581   25.8794 C.3     1  UNL1        0.0060
     12 C          23.0192   38.2645   25.5267 C.3     1  UNL1        0.0060
     13 C          25.5866   36.4222   30.5335 C.3     1  UNL1        0.1054
     14 C          26.4462   35.3789   29.8170 C.3     1  UNL1        0.0263
     15 C          24.7488   35.7371   31.6149 C.3     1  UNL1        0.0263
     16 N          20.2999   37.5037   29.3717 N.pl3   1  UNL1       -0.5357
     17 C          19.0203   39.7832   32.6035 C.ar    1  UNL1        0.0755
     18 C          18.0880   39.1080   31.8092 C.ar    1  UNL1        0.0046
     19 C          18.5134   38.3570   30.7438 C.ar    1  UNL1       -0.0236
     20 C          19.8719   38.2663   30.4523 C.ar    1  UNL1       -0.1123
     21 C          20.8031   38.9329   31.2442 C.ar    1  UNL1       -0.0236
     22 C          20.3840   39.6898   32.3079 C.ar    1  UNL1        0.0046
     23 C          18.5666   40.5916   33.7492 C.2     1  UNL1        0.3412
     24 O          19.0628   40.4236   34.8457 O.2     1  UNL1       -0.2449
     25 O          17.6014   41.5168   33.5809 O.3     1  UNL1       -0.4454
     26 C          16.2864   41.2013   34.1096 C.3     1  UNL1        0.2088
     27 C          15.3084   40.9906   32.9519 C.3     1  UNL1        0.0475
     28 C          14.3057   39.1998   31.5271 C.3     1  UNL1        0.0001
     29 C          14.8774   39.5232   32.9090 C.3     1  UNL1        0.0038
@<TRIPOS>UNITY_ATOM_ATTR
16 1
charge -1
@<TRIPOS>BOND
     1    28    29    1
     2    29    27    1
     3    27    26    1
     4    26    25    1
     5    25    23    1
     6    23    24    2
     7    23    17    1
     8    17    22   ar
     9    17    18   ar
    10    18    19   ar
    11    19    20   ar
    12    20    21   ar
    13    20    16    1
    14    21    22   ar
    15    16     1    1
    16     1     2    2
    17     1     3    2
    18     1     4    1
    19     4     8   ar
    20     4     5   ar
    21     5     6   ar
    22     6     7   ar
    23     6    13    1
    24     7     8   ar
    25     8     9    1
    26     9    10    1
    27     9    11    1
    28     9    12    1
    29    13    14    1
    30    13    15    1
@<TRIPOS>MOLECULE
ZINC03123179
 28 29 0 0 0
SMALL
GASTEIGER

@<TRIPOS>ATOM
      1 O          12.5812   37.0083   28.2973 O.3     1  UNL1       -0.3470
      2 C          12.7842   37.6213   27.0226 C.3     1  UNL1        0.1769
      3 C          11.4371   38.0681   26.4511 C.3     1  UNL1        0.2066
      4 O          11.6551   38.8647   25.2848 O.3     1  UNL1       -0.2180
      5 S          10.6444   38.6237   24.1727 S.O2    1  UNL1        0.1140
      6 O           9.3635   38.5943   24.7874 O.2     1  UNL1       -0.1419
      7 O          11.1427   37.5415   23.3983 O.2     1  UNL1       -0.1419
      8 C          10.7334   43.4852   20.6001 C.3     1  UNL1        0.0310
      9 C          10.7112   42.2710   21.4925 C.ar    1  UNL1       -0.0218
     10 C          10.3500   42.3960   22.8209 C.ar    1  UNL1       -0.0029
     11 C          10.3293   41.2821   23.6393 C.ar    1  UNL1        0.0206
     12 C          10.6697   40.0432   23.1293 C.ar    1  UNL1        0.1337
     13 C          11.0305   39.9181   21.8006 C.ar    1  UNL1        0.0206
     14 C          11.0503   41.0318   20.9820 C.ar    1  UNL1       -0.0029
     15 C          13.4114   37.5347   29.3343 C.3     1  UNL1        0.1895
     16 C          14.8527   37.6371   28.8312 C.3     1  UNL1        0.2407
     17 O          15.7584   37.6915   29.9649 O.3     1  UNL1       -0.4427
     18 C          16.1122   38.9138   30.4068 C.2     1  UNL1        0.3407
     19 O          15.6798   39.9071   29.8572 O.2     1  UNL1       -0.2449
     20 C          17.0259   39.0464   31.5601 C.ar    1  UNL1        0.0677
     21 C          18.4037   38.9045   31.3830 C.ar    1  UNL1       -0.0162
     22 C          19.2517   39.0352   32.4632 C.ar    1  UNL1       -0.0083
     23 C          18.7389   39.2949   33.7218 C.ar    1  UNL1       -0.0225
     24 C          17.3743   39.4309   33.9053 C.ar    1  UNL1       -0.0083
     25 C          16.5153   39.3084   32.8330 C.ar    1  UNL1       -0.0162
     26 C          15.0293   39.4574   33.0346 C.3     1  UNL1        0.0312
     27 C          19.6712   39.4306   34.8981 C.3     1  UNL1        0.0310
     28 C          18.9633   38.6155   30.0140 C.3     1  UNL1        0.0312
@<TRIPOS>BOND
     1     8     9    1
     2     9    14   ar
     3     9    10   ar
     4    10    11   ar
     5    11    12   ar
     6    12    13   ar
     7    12     5    1
     8    13    14   ar
     9     5     6    2
    10     5     7    2
    11     5     4    1
    12     4     3    1
    13     3     2    1
    14     2     1    1
    15     1    15    1
    16    15    16    1
    17    16    17    1
    18    17    18    1
    19    18    19    2
    20    18    20    1
    21    20    25   ar
    22    20    21   ar
    23    21    22   ar
    24    21    28    1
    25    22    23   ar
    26    23    24   ar
    27    23    27    1
    28    24    25   ar
    29    25    26    1
@<TRIPOS>MOLECULE
ZINC24851105
 29 30 0 0 0
SMALL
GASTEIGER

@<TRIPOS>ATOM
      1 C          11.7729   36.7322   27.1054 C.2     1  UNL1        0.3417
      2 O          11.0302   35.8157   27.3957 O.2     1  UNL1       -0.2449
      3 C          14.2241   38.5052   30.0856 C.ar    1  UNL1       -0.0003
      4 C          14.8033   37.9488   28.9586 C.ar    1  UNL1       -0.0024
      5 C          14.0135   37.3659   27.9897 C.ar    1  UNL1        0.0062
      6 C          12.6255   37.3487   28.1422 C.ar    1  UNL1        0.0773
      7 C          12.0478   37.9118   29.2815 C.ar    1  UNL1        0.0302
      8 C          12.8501   38.4861   30.2459 C.ar    1  UNL1        0.1391
      9 C          14.6825   38.6113   32.5202 C.3     1  UNL1        0.0044
     10 C          15.0939   39.1351   31.1427 C.3     1  UNL1        0.0205
     11 C          16.5579   38.7783   30.8778 C.3     1  UNL1        0.0044
     12 C          14.9243   40.6551   31.1036 C.3     1  UNL1        0.0044
     13 N          12.2393   39.0837   31.4545 N.pl3   1  UNL1        0.0574
     14 O          11.8632   38.3670   32.3646 O.2     1  UNL1       -0.1261
     15 O          12.1130   40.2922   31.5389 O.2     1  UNL1       -0.1261
     16 O          11.8188   37.1861   25.8378 O.3     1  UNL1       -0.4353
     17 C          10.5519   37.5124   25.2082 C.3     1  UNL1        0.2929
     18 C          10.7869   37.8731   23.7640 C.2     1  UNL1        0.2708
     19 O          11.4203   37.1269   23.0479 O.2     1  UNL1       -0.2708
     20 N          10.2930   39.0250   23.2681 N.am    1  UNL1       -0.2678
     21 C           9.5279   39.9263   24.1331 C.3     1  UNL1        0.1203
     22 C          10.4731   40.6887   25.0255 C.2     1  UNL1       -0.0047
     23 C          10.2478   41.9516   25.2912 C.2     1  UNL1       -0.0031
     24 C          10.5215   39.3755   21.8641 C.3     1  UNL1        0.1270
     25 C          11.0187   40.7954   21.7753 C.ar    1  UNL1        0.0273
     26 C          10.3854   41.8931   21.2944 C.ar    1  UNL1        0.0044
     27 C          11.0455   43.1074   21.3076 C.ar    1  UNL1        0.0072
     28 C          12.3025   43.1669   21.8115 C.ar    1  UNL1        0.0352
     29 S          12.5945   41.4682   22.2767 S.2     1  UNL1       -0.0891
@<TRIPOS>BOND
     1     9    10    1
     2    10    11    1
     3    10    12    1
     4    10     3    1
     5     3     8   ar
     6     3     4   ar
     7     4     5   ar
     8     5     6   ar
     9     6     7   ar
    10     6     1    1
    11     7     8   ar
    12     8    13    1
    13    13    14    2
    14    13    15    2
    15     1     2    2
    16     1    16    1
    17    16    17    1
    18    17    18    1
    19    18    19    2
    20    18    20   am
    21    20    21    1
    22    20    24    1
    23    21    22    1
    24    22    23    2
    25    24    25    1
    26    25    29   ar
    27    25    26   ar
    28    26    27   ar
    29    27    28   ar
    30    28    29   ar
@<TRIPOS>MOLECULE
ZINC08939642
 31 33 0 0 0
SMALL
GASTEIGER

@<TRIPOS>ATOM
      1 C          14.0753   38.8346   30.4072 C.2     1  UNL1        0.0180
      2 C          13.6862   37.8881   29.4788 C.2     1  UNL1        0.1439
      3 C          19.1264   38.8071   30.4111 C.3     1  UNL1        0.0500
      4 C          17.6791   38.8802   30.8248 C.ar    1  UNL1        0.0371
      5 C          16.6269   38.7470   30.0007 C.ar    1  UNL1        0.0139
      6 C          15.4259   38.8951   30.8347 C.ar    1  UNL1        0.0136
      7 C          15.8851   39.1051   32.1249 C.ar    1  UNL1        0.0371
      8 N          17.2302   39.0896   32.0972 N.ar    1  UNL1       -0.3340
      9 C          15.0276   39.3142   33.3463 C.3     1  UNL1        0.0500
     10 C          18.0921   39.2772   33.2670 C.3     1  UNL1        0.1054
     11 C          18.3882   40.7673   33.4487 C.3     1  UNL1        0.0245
     12 C          19.7728   40.9393   34.0764 C.3     1  UNL1        0.0019
     13 C          19.6229   41.2190   35.5732 C.3     1  UNL1        0.0001
     14 C          20.5863   39.6592   33.8757 C.3     1  UNL1        0.0001
     15 C          14.6084   36.8768   29.0577 C.1     1  UNL1        0.1070
     16 N          15.3401   36.0745   28.7236 N.1     1  UNL1       -0.1906
     17 C          12.3276   37.9193   28.9241 C.2     1  UNL1        0.3526
     18 O          11.3911   38.2462   29.6273 O.2     1  UNL1       -0.2441
     19 O          12.1181   37.5853   27.6344 O.3     1  UNL1       -0.4193
     20 C          10.7652   37.7305   27.1273 C.3     1  UNL1        0.3445
     21 N          10.7968   38.4482   25.8505 N.ar    1  UNL1       -0.1558
     22 C          10.3492   39.7242   25.7809 C.ar    1  UNL1        0.2821
     23 O           9.9156   40.2972   26.7636 O.2     1  UNL1       -0.2653
     24 C          10.4071   40.3904   24.4709 C.ar    1  UNL1        0.0771
     25 C           9.9708   41.7027   24.2969 C.ar    1  UNL1        0.0064
     26 C          10.0442   42.2837   23.0501 C.ar    1  UNL1        0.0003
     27 C          10.5501   41.5735   21.9692 C.ar    1  UNL1        0.0016
     28 C          10.9866   40.2769   22.1199 C.ar    1  UNL1        0.0211
     29 C          10.9217   39.6650   23.3744 C.ar    1  UNL1        0.1091
     30 N          11.3432   38.3892   23.5594 N.ar    1  UNL1       -0.1300
     31 N          11.2941   37.8170   24.7073 N.ar    1  UNL1       -0.0582
@<TRIPOS>BOND
     1     3     4    1
     2     4     8   ar
     3     4     5   ar
     4     5     6   ar
     5     6     7   ar
     6     6     1    1
     7     7     8   ar
     8     7     9    1
     9     8    10    1
    10    10    11    1
    11    11    12    1
    12    12    13    1
    13    12    14    1
    14     1     2    2
    15     2    15    1
    16     2    17    1
    17    15    16    3
    18    17    18    2
    19    17    19    1
    20    19    20    1
    21    20    21    1
    22    21    31   ar
    23    21    22   ar
    24    22    23    2
    25    22    24   ar
    26    24    29   ar
    27    24    25   ar
    28    25    26   ar
    29    26    27   ar
    30    27    28   ar
    31    28    29   ar
    32    29    30   ar
    33    30    31   ar
@<TRIPOS>MOLECULE
ZINC07247184
 28 30 0 0 0
SMALL
GASTEIGER

@<TRIPOS>ATOM
      1 N          24.5582   38.6837   28.0985 N.ar    1  UNL1       -0.2165
      2 C          25.1038   39.9096   28.2368 C.ar    1  UNL1        0.2763
      3 O          26.3122   40.0550   28.2556 O.2     1  UNL1       -0.2655
      4 C          24.2054   41.0660   28.3598 C.ar    1  UNL1        0.0593
      5 C          24.6679   42.3705   28.5017 C.ar    1  UNL1        0.0048
      6 C          23.7590   43.4008   28.6160 C.ar    1  UNL1        0.0002
      7 C          22.3935   43.1489   28.5909 C.ar    1  UNL1        0.0001
      8 C          21.9154   41.8631   28.4514 C.ar    1  UNL1        0.0019
      9 C          22.8151   40.8094   28.3341 C.ar    1  UNL1        0.0304
     10 C          22.3875   39.4090   28.1816 C.ar    1  UNL1        0.1764
     11 N          23.2970   38.4700   28.0774 N.ar    1  UNL1       -0.1602
     12 C          20.9533   39.0662   28.1461 C.2     1  UNL1        0.3613
     13 O          20.4862   38.5068   27.1740 O.2     1  UNL1       -0.2431
     14 O          20.1611   39.3734   29.1922 O.3     1  UNL1       -0.4357
     15 C          19.8509   38.3015   30.1213 C.3     1  UNL1        0.2775
     16 C          18.5171   38.5691   30.7697 C.2     1  UNL1        0.2230
     17 O          17.4941   38.1973   30.2305 O.2     1  UNL1       -0.2869
     18 C          18.4566   39.2514   32.0029 C.ar    1  UNL1        0.0687
     19 C          17.3396   39.6309   32.7418 C.ar    1  UNL1        0.0109
     20 C          17.5673   40.2904   33.9198 C.ar    1  UNL1        0.0186
     21 C          18.8506   40.5392   34.3060 C.ar    1  UNL1        0.0870
     22 S          19.7920   39.8458   33.0260 S.2     1  UNL1       -0.0725
     23 CL         19.4077   41.3481   35.7374 Cl      1  UNL1       -0.0752
     24 C          25.4582   37.5347   27.9718 C.3     1  UNL1        0.1307
     25 C          25.6748   36.9023   29.3480 C.3     1  UNL1        0.0265
     26 C          26.4485   35.5917   29.1909 C.3     1  UNL1        0.0021
     27 C          27.1212   33.8839   27.4959 C.3     1  UNL1        0.0000
     28 C          26.7522   35.3531   27.7105 C.3     1  UNL1        0.0001
@<TRIPOS>BOND
     1    27    28    1
     2    28    26    1
     3    26    25    1
     4    25    24    1
     5    24     1    1
     6     1    11   ar
     7     1     2   ar
     8     2     3    2
     9     2     4   ar
    10     4     9   ar
    11     4     5   ar
    12     5     6   ar
    13     6     7   ar
    14     7     8   ar
    15     8     9   ar
    16     9    10   ar
    17    10    11   ar
    18    10    12    1
    19    12    13    2
    20    12    14    1
    21    14    15    1
    22    15    16    1
    23    16    17    2
    24    16    18    1
    25    18    22   ar
    26    18    19   ar
    27    19    20   ar
    28    20    21   ar
    29    21    22   ar
    30    21    23    1
@<TRIPOS>MOLECULE
ZINC13793089
 29 31 0 0 0
SMALL
GASTEIGER

@<TRIPOS>ATOM
      1 N          25.1815   38.7925   28.8356 N.am    1  UNL1       -0.3221
      2 H          25.7670   39.5236   29.1387 H       1  UNL1        0.1514
      3 C          26.2613   36.5725   29.2162 C.ar    1  UNL1        0.0914
      4 C          26.7765   35.3961   28.5349 C.ar    1  UNL1       -0.0122
      5 C          26.6907   35.4278   27.1878 C.ar    1  UNL1        0.0047
      6 S          25.9328   36.9845   26.8183 S.2     1  UNL1       -0.0768
      7 C          25.7316   37.5879   28.4300 C.ar    1  UNL1        0.0834
      8 C          27.1426   34.3698   26.2289 C.3     1  UNL1        0.0327
      9 C          28.0628   33.3969   26.9803 C.3     1  UNL1        0.0055
     10 C          27.3920   33.0028   28.2994 C.3     1  UNL1        0.0050
     11 C          27.3820   34.1974   29.2549 C.3     1  UNL1        0.0268
     12 C          26.2955   36.6811   30.6755 C.2     1  UNL1        0.3426
     13 O          27.2862   37.1182   31.2299 O.2     1  UNL1       -0.2448
     14 O          25.2284   36.2965   31.4056 O.3     1  UNL1       -0.4454
     15 C          25.6057   35.2952   33.5932 C.3     1  UNL1        0.0513
     16 C          25.3335   35.0316   32.1109 C.3     1  UNL1        0.2089
     17 C          23.8448   38.9639   28.8152 C.2     1  UNL1       -0.0367
     18 S          23.1786   40.4302   28.2349 S.2     1  UNL1       -0.0618
     19 N          23.0327   37.9808   29.2517 N.am    1  UNL1       -0.6259
     20 C          21.8620   38.2984   29.9481 C.ar    1  UNL1       -0.1006
     21 C          21.9367   38.8283   31.2299 C.ar    1  UNL1       -0.0233
     22 C          20.7791   39.1406   31.9148 C.ar    1  UNL1       -0.0060
     23 C          19.5461   38.9264   31.3258 C.ar    1  UNL1       -0.0203
     24 C          19.4683   38.3991   30.0501 C.ar    1  UNL1        0.0179
     25 C          20.6227   38.0899   29.3574 C.ar    1  UNL1        0.1198
     26 C          18.2848   39.2689   32.0761 C.3     1  UNL1        0.0311
     27 N          20.5387   37.5315   27.9891 N.pl3   1  UNL1        0.0558
     28 O          20.6184   38.2703   27.0239 O.2     1  UNL1       -0.1262
     29 O          20.3897   36.3334   27.8283 O.2     1  UNL1       -0.1262
@<TRIPOS>UNITY_ATOM_ATTR
19 1
charge -1
@<TRIPOS>BOND
     1    15    16    1
     2    16    14    1
     3    14    12    1
     4    12    13    2
     5    12     3    1
     6     3     7   ar
     7     3     4   ar
     8     4    11    1
     9     4     5   ar
    10     5     6   ar
    11     5     8    1
    12     6     7   ar
    13     7     1    1
    14     1    17    1
    15    17    18    2
    16    17    19    1
    17    19    20    1
    18    20    25   ar
    19    20    21   ar
    20    21    22   ar
    21    22    23   ar
    22    23    24   ar
    23    23    26    1
    24    24    25   ar
    25    25    27    1
    26    27    28    2
    27    27    29    2
    28     8     9    1
    29     9    10    1
    30    10    11    1
    31     1     2    1
@<TRIPOS>MOLECULE
ZINC10488570
 31 33 0 0 0
SMALL
GASTEIGER

@<TRIPOS>ATOM
      1 N          23.8964   50.0765   25.4928 N.ar    1  UNL1       -0.3041
      2 C          23.4799   49.3646   26.5582 C.ar    1  UNL1        0.1801
      3 N          22.1852   49.4949   26.6973 N.ar    1  UNL1       -0.2063
      4 C          21.7047   50.2900   25.7379 C.ar    1  UNL1        0.1696
      5 C          22.7799   50.6792   24.9488 C.ar    1  UNL1        0.1527
      6 C          22.5517   51.5325   23.8479 C.ar    1  UNL1        0.2835
      7 O          23.4780   51.8879   23.1414 O.2     1  UNL1       -0.2651
      8 N          21.2953   51.9501   23.5873 N.ar    1  UNL1       -0.2398
      9 C          20.2649   51.5700   24.3624 C.ar    1  UNL1        0.3353
     10 O          19.1470   51.9702   24.1003 O.2     1  UNL1       -0.2461
     11 N          20.4387   50.7534   25.4187 N.ar    1  UNL1       -0.2648
     12 C          25.2729   50.1889   25.0039 C.3     1  UNL1        0.1078
     13 C          25.5838   49.0097   24.0800 C.3     1  UNL1        0.0245
     14 C          26.0472   49.5357   22.7200 C.3     1  UNL1        0.0020
     15 C          23.8992   48.3450   22.2603 C.3     1  UNL1        0.0000
     16 C          25.1332   48.9868   21.6227 C.3     1  UNL1        0.0001
     17 C          19.2878   50.3577   26.2343 C.3     1  UNL1        0.1120
     18 C          19.2978   51.1445   27.5464 C.3     1  UNL1        0.0247
     19 C          18.6742   50.2948   28.6554 C.3     1  UNL1        0.0020
     20 C          19.7479   49.3989   29.2764 C.3     1  UNL1        0.0001
     21 C          21.0514   52.8358   22.4462 C.3     1  UNL1        0.1826
     22 C          20.4179   52.0502   21.3269 C.2     1  UNL1        0.1960
     23 O          19.2264   52.1412   21.1213 O.2     1  UNL1       -0.2893
     24 C          21.2454   51.1729   20.4836 C.ar    1  UNL1        0.0363
     25 C          22.3662   51.6860   19.8227 C.ar    1  UNL1        0.0026
     26 C          23.1366   50.8575   19.0348 C.ar    1  UNL1       -0.0045
     27 C          22.8034   49.5210   18.8969 C.ar    1  UNL1       -0.0258
     28 C          21.6961   49.0058   19.5476 C.ar    1  UNL1       -0.0257
     29 C          20.9154   49.8217   20.3392 C.ar    1  UNL1       -0.0017
     30 C          21.3423   47.5493   19.3905 C.3     1  UNL1        0.0307
     31 C          23.6510   48.6224   18.0338 C.3     1  UNL1        0.0307
@<TRIPOS>BOND
     1    15    16    1
     2    16    14    1
     3    14    13    1
     4    13    12    1
     5    12     1    1
     6     1     5   ar
     7     1     2   ar
     8     2     3   ar
     9     3     4   ar
    10     4    11   ar
    11     4     5   ar
    12     5     6   ar
    13     6     7    2
    14     6     8   ar
    15     8     9   ar
    16     8    21    1
    17     9    10    2
    18     9    11   ar
    19    11    17    1
    20    17    18    1
    21    18    19    1
    22    19    20    1
    23    21    22    1
    24    22    23    2
    25    22    24    1
    26    24    29   ar
    27    24    25   ar
    28    25    26   ar
    29    26    27   ar
    30    27    28   ar
    31    27    31    1
    32    28    29   ar
    33    28    30    1
@<TRIPOS>MOLECULE
ZINC05821113
 30 32 0 0 0
SMALL
GASTEIGER

@<TRIPOS>ATOM
      1 C          22.2748   38.7160   29.5254 C.ar    1  UNL1       -0.0162
      2 C          22.8296   37.8357   30.4316 C.ar    1  UNL1        0.0325
      3 C          24.0191   37.1756   30.1372 C.ar    1  UNL1        0.1371
      4 C          24.6479   37.4186   28.9234 C.ar    1  UNL1        0.0501
      5 C          24.0856   38.3006   28.0135 C.ar    1  UNL1        0.1473
      6 C          22.8976   38.9503   28.3147 C.ar    1  UNL1        0.0332
      7 C          25.9423   36.7346   28.6057 C.3     1  UNL1        0.0529
      8 C          26.1312   36.4249   27.1571 C.2     1  UNL1       -0.0302
      9 C          26.7722   35.3640   26.7609 C.2     1  UNL1       -0.0479
     10 C          27.3687   34.3278   27.6643 C.3     1  UNL1        0.0218
     11 C          27.3817   34.7953   29.1246 C.3     1  UNL1        0.0084
     12 C          26.0293   35.4380   29.4174 C.3     1  UNL1        0.0453
     13 C          25.8449   35.7952   30.8889 C.3     1  UNL1        0.1338
     14 O          24.5155   36.3016   31.0506 O.3     1  UNL1       -0.4828
     15 C          26.8603   36.8656   31.2940 C.3     1  UNL1        0.0436
     16 C          26.0335   34.5477   31.7543 C.3     1  UNL1        0.0436
     17 C          26.9275   35.1616   25.2757 C.3     1  UNL1        0.0260
     18 C          20.9866   39.4241   29.8575 C.3     1  UNL1        0.0266
     19 C          19.9027   38.3907   30.1708 C.3     1  UNL1        0.0047
     20 C          19.2953   38.6887   31.5431 C.3     1  UNL1        0.0003
     21 C          20.2030   39.3234   33.7826 C.3     1  UNL1        0.0000
     22 C          20.1911   39.6759   32.2939 C.3     1  UNL1        0.0000
     23 O          24.7003   38.5297   26.8231 O.3     1  UNL1       -0.4243
     24 C          24.9525   39.8091   26.5034 C.2     1  UNL1        0.3218
     25 O          24.2985   40.3585   25.6487 O.2     1  UNL1       -0.2497
     26 C          26.0512   40.5600   27.2105 C.3     1  UNL1        0.1159
     27 C          25.4409   41.6773   28.0591 C.3     1  UNL1        0.0534
     28 C          26.4645   42.1731   29.0479 C.2     1  UNL1        0.0509
     29 O          27.1443   43.1360   28.7822 O.co2   1  UNL1       -0.5492
     30 O          26.6211   41.5448   30.2237 O.co2   1  UNL1       -0.5492
@<TRIPOS>UNITY_ATOM_ATTR
30 1
charge -1
@<TRIPOS>BOND
     1    21    22    1
     2    22    20    1
     3    20    19    1
     4    19    18    1
     5    18     1    1
     6     1     6   ar
     7     1     2   ar
     8     2     3   ar
     9     3    14    1
    10     3     4   ar
    11     4     5   ar
    12     4     7    1
    13     5     6   ar
    14     5    23    1
    15    23    24    1
    16    24    25    2
    17    24    26    1
    18    26    27    1
    19    27    28    1
    20    28    29   ar
    21    28    30   ar
    22     7    12    1
    23     7     8    1
    24     8     9    2
    25     9    10    1
    26     9    17    1
    27    10    11    1
    28    11    12    1
    29    12    13    1
    30    13    14    1
    31    13    15    1
    32    13    16    1
@<TRIPOS>MOLECULE
ZINC16407977
 30 31 0 0 0
SMALL
GASTEIGER

@<TRIPOS>ATOM
      1 C          13.4825   38.2763   31.1197 C.ar    1  UNL1        0.1722
      2 C          14.2846   38.9966   31.9802 C.ar    1  UNL1        0.0401
      3 C          15.5413   39.4479   31.5489 C.ar    1  UNL1        0.0040
      4 C          15.9736   39.1632   30.2447 C.ar    1  UNL1        0.0033
      5 C          15.1674   38.4395   29.3965 C.ar    1  UNL1        0.0401
      6 C          13.9205   37.9982   29.8240 C.ar    1  UNL1        0.1729
      7 C          16.3977   40.2119   32.4557 C.2     1  UNL1        0.0133
      8 C          17.7207   39.8485   32.6275 C.2     1  UNL1        0.1030
      9 C          18.2921   38.8192   31.8124 C.1     1  UNL1        0.1033
     10 N          18.7455   38.0025   31.1657 N.1     1  UNL1       -0.1907
     11 C          18.5363   40.5155   33.6416 C.2     1  UNL1        0.1818
     12 O          18.2872   41.6583   33.9655 O.2     1  UNL1       -0.2906
     13 C          19.6863   39.7837   34.2845 C.3     1  UNL1        0.0562
     14 C          20.8094   39.5999   33.2617 C.3     1  UNL1        0.0077
     15 C          20.2065   40.5948   35.4729 C.3     1  UNL1        0.0077
     16 C          19.2105   38.4134   34.7712 C.3     1  UNL1        0.0077
     17 O          12.2640   37.8372   31.5340 O.3     1  UNL1       -0.4724
     18 C          11.0087   39.8243   30.9716 C.3     1  UNL1        0.0512
     19 C          11.1246   38.3072   30.8108 C.3     1  UNL1        0.2057
     20 O          13.1283   37.2895   28.9800 O.3     1  UNL1       -0.4642
     21 C          13.5615   37.1790   27.6227 C.3     1  UNL1        0.2691
     22 C          12.3784   37.3391   26.7031 C.ar    1  UNL1        0.1671
     23 C          11.2770   36.5558   26.6941 C.ar    1  UNL1        0.0401
     24 C          10.4252   37.0519   25.6956 C.ar    1  UNL1        0.0471
     25 C          11.0581   38.1271   25.1382 C.ar    1  UNL1        0.2202
     26 O          12.2428   38.2845   25.7644 O.2     1  UNL1       -0.4475
     27 C          10.5413   38.9618   24.0513 C.2     1  UNL1        0.3764
     28 O          10.8445   38.7166   22.8993 O.2     1  UNL1       -0.2414
     29 O           9.7289   40.0026   24.3279 O.3     1  UNL1       -0.4392
     30 C          10.3017   41.3326   24.2204 C.3     1  UNL1        0.2561
@<TRIPOS>BOND
     1    18    19    1
     2    19    17    1
     3    17     1    1
     4     1     6   ar
     5     1     2   ar
     6     2     3   ar
     7     3     4   ar
     8     3     7    1
     9     4     5   ar
    10     5     6   ar
    11     6    20    1
    12    20    21    1
    13    21    22    1
    14    22    26   ar
    15    22    23   ar
    16    23    24   ar
    17    24    25   ar
    18    25    26   ar
    19    25    27    1
    20    27    28    2
    21    27    29    1
    22    29    30    1
    23     7     8    2
    24     8     9    1
    25     8    11    1
    26     9    10    3
    27    11    12    2
    28    11    13    1
    29    13    14    1
    30    13    15    1
    31    13    16    1
@<TRIPOS>MOLECULE
ZINC02062854
 29 31 0 0 0
SMALL
GASTEIGER

@<TRIPOS>ATOM
      1 C          20.7953   38.9129   30.0499 C.ar    1  UNL1        0.0758
      2 C          20.7976   39.8773   29.0419 C.ar    1  UNL1        0.0066
      3 C          21.9051   40.0319   28.2256 C.ar    1  UNL1        0.0049
      4 C          23.0192   39.2293   28.4131 C.ar    1  UNL1        0.0587
      5 C          23.0211   38.2487   29.4268 C.ar    1  UNL1        0.0589
      6 C          21.9131   38.0953   30.2421 C.ar    1  UNL1        0.0111
      7 C          24.3382   37.5828   29.3431 C.2     1  UNL1        0.2589
      8 O          24.7223   36.6799   30.0588 O.2     1  UNL1       -0.2691
      9 N          25.0402   38.1438   28.3423 N.am    1  UNL1       -0.2011
     10 C          24.3342   39.1187   27.7422 C.2     1  UNL1        0.2589
     11 O          24.7138   39.7979   26.8099 O.2     1  UNL1       -0.2691
     12 C          26.3375   37.7627   27.9735 C.ar    1  UNL1        0.0621
     13 C          26.5267   36.7642   27.0272 C.ar    1  UNL1        0.0154
     14 C          27.8060   36.3903   26.6654 C.ar    1  UNL1        0.0022
     15 C          28.8987   37.0090   27.2444 C.ar    1  UNL1        0.0115
     16 C          28.7140   38.0044   28.1877 C.ar    1  UNL1        0.0589
     17 C          27.4355   38.3866   28.5494 C.ar    1  UNL1        0.0267
     18 CL         30.0885   38.7783   28.9126 Cl      1  UNL1       -0.0822
     19 C          19.6074   38.7545   30.9169 C.2     1  UNL1        0.3411
     20 O          18.8521   37.8188   30.7470 O.2     1  UNL1       -0.2449
     21 O          19.3635   39.6482   31.8947 O.3     1  UNL1       -0.4492
     22 C          19.4736   39.1747   33.2629 C.3     1  UNL1        0.1693
     23 C          20.6245   39.9003   33.9628 C.3     1  UNL1        0.0473
     24 C          18.1662   39.4555   34.0066 C.3     1  UNL1        0.0436
     25 C          17.6681   40.8577   33.6508 C.3     1  UNL1        0.0037
     26 C          16.1416   40.8461   33.5494 C.3     1  UNL1        0.0001
     27 C          15.6601   39.4215   33.2669 C.3     1  UNL1        0.0000
     28 C          15.4842   39.2094   30.7836 C.3     1  UNL1        0.0000
     29 C          14.6985   39.4348   32.0770 C.3     1  UNL1        0.0000
@<TRIPOS>BOND
     1    28    29    1
     2    29    27    1
     3    27    26    1
     4    26    25    1
     5    25    24    1
     6    24    22    1
     7    22    23    1
     8    22    21    1
     9    21    19    1
    10    19    20    2
    11    19     1    1
    12     1     6   ar
    13     1     2   ar
    14     2     3   ar
    15     3     4   ar
    16     4    10    1
    17     4     5   ar
    18     5     6   ar
    19     5     7    1
    20     7     8    2
    21     7     9   am
    22     9    10   am
    23     9    12    1
    24    10    11    2
    25    12    17   ar
    26    12    13   ar
    27    13    14   ar
    28    14    15   ar
    29    15    16   ar
    30    16    17   ar
    31    16    18    1
@<TRIPOS>MOLECULE
ZINC05498495
 29 30 0 0 0
SMALL
GASTEIGER

@<TRIPOS>ATOM
      1 C          19.5557   39.5744   33.4780 C.ar    1  UNL1       -0.0231
      2 C          18.2199   39.7282   33.7987 C.ar    1  UNL1       -0.0074
      3 C          17.2525   39.5703   32.8241 C.ar    1  UNL1       -0.0074
      4 C          17.6209   39.2593   31.5285 C.ar    1  UNL1        0.0813
      5 C          18.9563   39.1007   31.2089 C.ar    1  UNL1       -0.0074
      6 C          19.9240   39.2630   32.1827 C.ar    1  UNL1       -0.0074
      7 C          20.7030   41.2227   34.9326 C.3     1  UNL1        0.0047
      8 C          20.6103   39.7466   34.5407 C.3     1  UNL1        0.0223
      9 C          20.2368   38.9151   35.7695 C.3     1  UNL1        0.0047
     10 C          19.3576   38.7557   29.7979 C.3     1  UNL1        0.0236
     11 C          20.2176   39.8826   29.2223 C.3     1  UNL1        0.0047
     12 C          20.1593   37.4525   29.7997 C.3     1  UNL1        0.0047
     13 S          16.3877   39.0580   30.2861 S.O2    1  UNL1       -0.0584
     14 O          17.0351   38.4791   29.1614 O.2     1  UNL1       -0.1842
     15 O          15.6838   40.2900   30.2092 O.2     1  UNL1       -0.1842
     16 N          15.3100   37.9311   30.8439 N.pl3   1  UNL1       -0.5357
     17 C          13.9458   38.1436   30.6983 C.ar    1  UNL1       -0.1060
     18 C          13.2174   38.7345   31.7237 C.ar    1  UNL1       -0.0236
     19 C          11.8622   38.9453   31.5761 C.ar    1  UNL1       -0.0019
     20 C          11.2162   38.5707   30.4081 C.ar    1  UNL1        0.0001
     21 C          11.9217   37.9885   29.3785 C.ar    1  UNL1        0.0046
     22 C          13.2947   37.7629   29.5141 C.ar    1  UNL1        0.0536
     23 C          14.0544   37.1356   28.4192 C.2     1  UNL1        0.3395
     24 O          14.6581   36.0991   28.6146 O.2     1  UNL1       -0.2450
     25 O          14.0800   37.7109   27.2008 O.3     1  UNL1       -0.4414
     26 C          12.8207   37.7891   26.4822 C.3     1  UNL1        0.2559
     27 C          15.7961   39.7376   33.1738 C.3     1  UNL1        0.0236
     28 C          15.4744   38.9166   34.4242 C.3     1  UNL1        0.0047
     29 C          15.5029   41.2146   33.4439 C.3     1  UNL1        0.0047
@<TRIPOS>UNITY_ATOM_ATTR
16 1
charge -1
@<TRIPOS>BOND
     1     7     8    1
     2     8     9    1
     3     8     1    1
     4     1     6   ar
     5     1     2   ar
     6     2     3   ar
     7     3     4   ar
     8     3    27    1
     9     4     5   ar
    10     4    13    1
    11     5     6   ar
    12     5    10    1
    13    10    11    1
    14    10    12    1
    15    13    14    2
    16    13    15    2
    17    13    16    1
    18    16    17    1
    19    17    22   ar
    20    17    18   ar
    21    18    19   ar
    22    19    20   ar
    23    20    21   ar
    24    21    22   ar
    25    22    23    1
    26    23    24    2
    27    23    25    1
    28    25    26    1
    29    27    28    1
    30    27    29    1
@<TRIPOS>MOLECULE
ZINC14873097
 29 30 0 0 0
SMALL
GASTEIGER

@<TRIPOS>ATOM
      1 N          19.7516   39.0383   31.3635 N.ar    1  UNL1       -0.2888
      2 C          20.9616   38.7405   30.9212 C.ar    1  UNL1        0.2673
      3 O          21.9585   39.0007   31.5688 O.2     1  UNL1       -0.2664
      4 C          21.0463   38.0769   29.6044 C.ar    1  UNL1        0.0869
      5 C          22.1406   37.6642   28.9161 C.2     1  UNL1        0.0114
      6 S          19.3187   37.9714   29.1592 S.2     1  UNL1       -0.0636
      7 C          18.6378   38.7376   30.6210 C.ar    1  UNL1        0.1123
      8 C          17.2973   38.9775   30.9308 C.2     1  UNL1        0.1584
      9 C          23.4668   37.7108   29.5477 C.ar    1  UNL1        0.0023
     10 C          24.3597   38.7420   29.2341 C.ar    1  UNL1        0.0001
     11 C          25.6015   38.7786   29.8313 C.ar    1  UNL1        0.0017
     12 C          25.9644   37.8019   30.7429 C.ar    1  UNL1        0.0241
     13 C          25.0895   36.7759   31.0545 C.ar    1  UNL1        0.1429
     14 C          23.8436   36.7246   30.4661 C.ar    1  UNL1        0.0241
     15 N          25.4900   35.7341   32.0267 N.pl3   1  UNL1        0.0577
     16 O          25.4060   34.5565   31.7268 O.2     1  UNL1       -0.1261
     17 O          25.9085   36.0544   33.1248 O.2     1  UNL1       -0.1261
     18 C          16.2748   38.6607   29.9796 C.1     1  UNL1        0.1129
     19 N          15.4637   38.4094   29.2250 N.1     1  UNL1       -0.1901
     20 C          16.9454   39.5402   32.1997 C.1     1  UNL1        0.1129
     21 N          16.6662   39.9865   33.2064 N.1     1  UNL1       -0.1901
     22 C          19.5984   39.6981   32.6625 C.3     1  UNL1        0.1095
     23 C          20.2716   38.8535   33.7462 C.3     1  UNL1        0.0227
     24 C          19.2296   37.9513   34.4104 C.3     1  UNL1        0.0019
     25 C          19.5187   37.8563   35.9098 C.3     1  UNL1        0.0001
     26 C          20.8935   39.7745   34.7978 C.3     1  UNL1        0.0019
     27 C          20.3644   41.1973   34.6065 C.3     1  UNL1        0.0001
     28 C          18.0134   41.8199   35.1790 C.3     1  UNL1        0.0000
     29 C          19.4064   41.5430   35.7482 C.3     1  UNL1        0.0000
@<TRIPOS>BOND
     1    28    29    1
     2    29    27    1
     3    27    26    1
     4    26    23    1
     5    23    24    1
     6    23    22    1
     7    24    25    1
     8    22     1    1
     9     1     7   ar
    10     1     2   ar
    11     2     3    2
    12     2     4   ar
    13     4     5    2
    14     4     6   ar
    15     5     9    1
    16     9    14   ar
    17     9    10   ar
    18    10    11   ar
    19    11    12   ar
    20    12    13   ar
    21    13    14   ar
    22    13    15    1
    23    15    16    2
    24    15    17    2
    25     6     7   ar
    26     7     8    2
    27     8    18    1
    28     8    20    1
    29    18    19    3
    30    20    21    3
@<TRIPOS>MOLECULE
ZINC16998546
 29 28 0 0 0
SMALL
GASTEIGER

@<TRIPOS>ATOM
      1 C          21.8899   37.6489   29.4806 C.3     1  UNL1       -0.1297
      2 C          21.7503   38.3177   28.1116 C.2     1  UNL1       -0.1283
      3 N          21.0748   37.4030   27.1878 N.pl3   1  UNL1       -0.1249
      4 O          20.2883   36.5770   27.6149 O.2     1  UNL1       -0.1664
      5 O          21.2998   37.4688   25.9925 O.2     1  UNL1       -0.1664
      6 C          23.1386   38.6594   27.5670 C.3     1  UNL1       -0.1029
      7 C          23.3375   40.1762   27.5929 C.3     1  UNL1        0.2012
      8 O          24.3605   40.5065   28.5344 O.3     1  UNL1       -0.3300
      9 C          25.6674   40.0778   28.1470 C.3     1  UNL1        0.1767
     10 O          22.1153   40.8104   27.9755 O.3     1  UNL1       -0.3300
     11 C          22.2855   42.1228   28.5147 C.3     1  UNL1        0.1767
     12 C          23.3423   37.2159   29.6910 C.3     1  UNL1       -0.0327
     13 C          23.9212   37.9457   30.9047 C.3     1  UNL1       -0.0027
     14 C          24.5671   36.9305   31.8499 C.3     1  UNL1       -0.0001
     15 C          24.9780   35.6870   31.0589 C.3     1  UNL1        0.0011
     16 C          25.5969   34.6597   32.0091 C.3     1  UNL1        0.0162
     17 C          25.5303   35.1870   33.4438 C.3     1  UNL1        0.1054
     18 C          26.7214   34.7423   34.1856 C.1     1  UNL1        0.0731
     19 N          27.6406   34.3992   34.7582 N.1     1  UNL1       -0.1959
     20 C          21.4895   38.6398   30.5755 C.3     1  UNL1       -0.0068
     21 C          19.1231   38.4095   31.2163 C.2     1  UNL1        0.0328
     22 C          20.0309   38.9888   30.4280 C.2     1  UNL1       -0.0260
     23 C          17.7075   38.7482   31.0732 C.2     1  UNL1        0.1728
     24 O          17.1285   38.5086   30.0342 O.2     1  UNL1       -0.2913
     25 C          16.9666   39.3891   32.2182 C.3     1  UNL1        0.0691
     26 C          17.8854   39.4693   33.4389 C.3     1  UNL1        0.0081
     27 C          18.1109   40.9359   33.8122 C.3     1  UNL1        0.0005
     28 C          20.2082   39.7590   34.4893 C.3     1  UNL1        0.0000
     29 C          19.5545   41.1266   34.2816 C.3     1  UNL1        0.0000
@<TRIPOS>UNITY_ATOM_ATTR
2 1
charge -1
@<TRIPOS>BOND
     1    28    29    1
     2    29    27    1
     3    27    26    1
     4    26    25    1
     5    25    23    1
     6    23    24    2
     7    23    21    1
     8    21    22    2
     9    22    20    1
    10    20     1    1
    11     1    12    1
    12     1     2    1
    13    12    13    1
    14    13    14    1
    15    14    15    1
    16    15    16    1
    17    16    17    1
    18    17    18    1
    19    18    19    3
    20     2     6    1
    21     2     3    1
    22     6     7    1
    23     7    10    1
    24     7     8    1
    25    10    11    1
    26     8     9    1
    27     3     4    2
    28     3     5    2
@<TRIPOS>MOLECULE
ZINC04376640
 29 30 0 0 0
SMALL
GASTEIGER

@<TRIPOS>ATOM
      1 N          14.0562   38.4091   30.1541 N.pl3   1  UNL1       -0.2839
      2 C          13.6381   37.6314   29.0895 C.ar    1  UNL1        0.1819
      3 N          12.4315   37.5276   28.5490 N.ar    1  UNL1       -0.2075
      4 C          12.2650   36.7129   27.5338 C.ar    1  UNL1        0.1533
      5 N          13.2851   36.0312   27.0710 N.ar    1  UNL1       -0.1914
      6 S          14.5544   36.5375   28.1023 S.2     1  UNL1        0.0491
      7 C          10.9068   36.5659   26.8976 C.3     1  UNL1        0.0927
      8 C          10.8416   37.4108   25.6514 C.ar    1  UNL1       -0.0146
      9 C          11.0517   38.7749   25.7295 C.ar    1  UNL1       -0.0042
     10 C          10.9963   39.5493   24.5858 C.ar    1  UNL1       -0.0046
     11 C          10.7217   38.9609   23.3654 C.ar    1  UNL1       -0.0219
     12 C          10.5064   37.5977   23.2881 C.ar    1  UNL1       -0.0046
     13 C          10.5661   36.8226   24.4312 C.ar    1  UNL1       -0.0042
     14 C          10.6575   39.8057   22.1191 C.3     1  UNL1        0.0310
     15 C          15.2284   39.2763   30.0121 C.3     1  UNL1        0.1023
     16 C          16.4329   38.6209   30.6908 C.3     1  UNL1        0.1067
     17 N          18.1049   39.3407   32.3656 N.am    1  UNL1       -0.2795
     18 C          16.8535   39.4497   31.8770 C.2     1  UNL1        0.2274
     19 O          16.0660   40.2150   32.3919 O.2     1  UNL1       -0.2748
     20 C          19.0561   38.4163   31.7436 C.3     1  UNL1        0.0934
     21 C          20.5552   38.3054   29.7479 C.3     1  UNL1        0.0018
     22 C          20.0375   39.2036   30.8731 C.3     1  UNL1        0.0215
     23 C          18.5138   40.1464   33.5187 C.3     1  UNL1        0.0934
     24 C          19.4191   39.3129   34.4280 C.3     1  UNL1        0.0215
     25 C          20.3345   40.2427   35.2269 C.3     1  UNL1        0.0018
     26 C          13.3268   38.3657   31.4239 C.3     1  UNL1        0.1247
     27 C          12.4660   39.6230   31.5609 C.3     1  UNL1        0.1637
     28 O          11.1299   39.3332   31.1451 O.3     1  UNL1       -0.3493
     29 C          10.7341   37.9778   31.3643 C.3     1  UNL1        0.1742
@<TRIPOS>BOND
     1    21    22    1
     2    22    20    1
     3    20    17    1
     4    17    23    1
     5    17    18   am
     6    23    24    1
     7    24    25    1
     8    18    19    2
     9    18    16    1
    10    16    15    1
    11    15     1    1
    12     1    26    1
    13     1     2    1
    14    26    27    1
    15    27    28    1
    16    28    29    1
    17     2     6   ar
    18     2     3   ar
    19     3     4   ar
    20     4     5   ar
    21     4     7    1
    22     5     6   ar
    23     7     8    1
    24     8    13   ar
    25     8     9   ar
    26     9    10   ar
    27    10    11   ar
    28    11    12   ar
    29    11    14    1
    30    12    13   ar
@<TRIPOS>MOLECULE
ZINC22664299
 30 31 0 0 0
SMALL
GASTEIGER

@<TRIPOS>ATOM
      1 C          25.1775   42.0291   27.3639 C.ar    1  UNL1        0.1262
      2 C          25.6541   42.8081   26.3029 C.ar    1  UNL1        0.1098
      3 N          25.4968   42.3738   25.0667 N.ar    1  UNL1       -0.2247
      4 C          24.8964   41.2149   24.8171 C.ar    1  UNL1        0.1637
      5 N          24.4240   40.4444   25.7873 N.ar    1  UNL1       -0.2117
      6 C          24.5449   40.8035   27.0597 C.ar    1  UNL1        0.1411
      7 C          24.7448   40.7735   23.4122 C.ar    1  UNL1        0.0391
      8 C          23.5327   40.2385   22.9746 C.ar    1  UNL1        0.0064
      9 C          23.3941   39.8229   21.6671 C.ar    1  UNL1        0.0401
     10 C          24.4549   39.9456   20.7811 C.ar    1  UNL1        0.1724
     11 C          25.6679   40.4790   21.2121 C.ar    1  UNL1        0.1725
     12 C          25.8138   40.8920   22.5231 C.ar    1  UNL1        0.0431
     13 O          26.7077   40.5936   20.3430 O.3     1  UNL1       -0.4684
     14 C          28.0155   40.7070   20.9076 C.3     1  UNL1        0.2526
     15 O          24.3122   39.5399   19.4922 O.3     1  UNL1       -0.4684
     16 C          24.5459   38.1572   19.2175 C.3     1  UNL1        0.2526
     17 C          25.3318   42.4745   28.7576 C.2     1  UNL1        0.3455
     18 O          26.2603   42.0657   29.4270 O.2     1  UNL1       -0.2447
     19 O          24.4436   43.3360   29.2921 O.3     1  UNL1       -0.4453
     20 C          24.8287   45.6305   28.5728 C.3     1  UNL1        0.0513
     21 C          24.9527   44.6265   29.7206 C.3     1  UNL1        0.2089
     22 N          24.0570   39.9970   28.0659 N.pl3   1  UNL1       -0.2930
     23 C          22.6088   39.7963   27.9242 C.3     1  UNL1        0.0921
     24 C          22.2963   38.2987   27.9508 C.3     1  UNL1        0.0198
     25 C          21.4116   37.9837   29.1587 C.3     1  UNL1        0.0018
     26 C          21.5635   37.9076   26.6660 C.3     1  UNL1        0.0018
     27 C          24.7659   38.7108   28.1000 C.3     1  UNL1        0.0921
     28 C          25.6851   38.6671   29.3223 C.3     1  UNL1        0.0198
     29 C          25.1777   37.6095   30.3045 C.3     1  UNL1        0.0018
     30 C          27.1060   38.3123   28.8795 C.3     1  UNL1        0.0018
@<TRIPOS>BOND
     1    20    21    1
     2    21    19    1
     3    19    17    1
     4    17    18    2
     5    17     1    1
     6     1     6   ar
     7     1     2   ar
     8     2     3   ar
     9     3     4   ar
    10     4     5   ar
    11     4     7    1
    12     5     6   ar
    13     6    22    1
    14    22    23    1
    15    22    27    1
    16    23    24    1
    17    24    25    1
    18    24    26    1
    19    27    28    1
    20    28    29    1
    21    28    30    1
    22     7    12   ar
    23     7     8   ar
    24     8     9   ar
    25     9    10   ar
    26    10    11   ar
    27    10    15    1
    28    11    12   ar
    29    11    13    1
    30    13    14    1
    31    15    16    1
@<TRIPOS>MOLECULE
ZINC27712649
 31 33 0 0 0
SMALL
GASTEIGER

@<TRIPOS>ATOM
      1 C          19.7593   39.3066   31.5227 C.3     1  UNL1        0.2300
      2 C          20.7526   39.1807   32.6796 C.3     1  UNL1        0.0560
      3 C          20.3209   38.6241   30.3020 C.2     1  UNL1        0.2128
      4 O          19.8338   37.5852   29.9102 O.2     1  UNL1       -0.2875
      5 C          23.6056   40.3375   28.2361 C.ar    1  UNL1       -0.0222
      6 C          23.7425   39.1003   28.8412 C.ar    1  UNL1       -0.0042
      7 C          22.6795   38.5367   29.5148 C.ar    1  UNL1        0.0026
      8 C          21.4606   39.2188   29.5855 C.ar    1  UNL1        0.0383
      9 C          21.3286   40.4661   28.9669 C.ar    1  UNL1        0.0026
     10 C          22.4027   41.0189   28.3020 C.ar    1  UNL1       -0.0042
     11 C          24.7725   40.9461   27.5021 C.3     1  UNL1        0.0264
     12 C          25.7617   41.5309   28.5123 C.3     1  UNL1        0.0047
     13 C          25.8546   43.0454   28.3171 C.3     1  UNL1        0.0003
     14 C          24.8752   43.7427   29.2634 C.3     1  UNL1        0.0000
     15 C          24.5390   45.9113   28.0692 C.3     1  UNL1        0.0000
     16 C          23.8874   44.5801   28.4486 C.3     1  UNL1        0.0000
     17 O          18.5032   38.6794   31.8929 O.3     1  UNL1       -0.4411
     18 C          17.4804   39.4986   32.2120 C.2     1  UNL1        0.3477
     19 O          17.6896   40.5116   32.8517 O.2     1  UNL1       -0.2447
     20 C          16.1169   39.1682   31.7879 C.ar    1  UNL1        0.1510
     21 C          15.0327   39.3400   32.6608 C.ar    1  UNL1        0.1118
     22 N          13.8165   39.0324   32.2617 N.ar    1  UNL1       -0.2260
     23 C          13.5772   38.5672   31.0324 C.ar    1  UNL1        0.1500
     24 C          12.2581   38.2606   30.6598 C.ar    1  UNL1        0.0372
     25 C          12.0076   37.7785   29.4080 C.ar    1  UNL1        0.0003
     26 C          13.0694   37.5961   28.5133 C.ar    1  UNL1       -0.0041
     27 C          14.3336   37.8968   28.8912 C.ar    1  UNL1        0.0801
     28 N          14.5919   38.3777   30.1380 N.ar    1  UNL1       -0.2579
     29 C          15.8640   38.6686   30.4867 C.ar    1  UNL1        0.2736
     30 O          16.7769   38.5046   29.6966 O.2     1  UNL1       -0.2663
     31 C          12.8040   37.0647   27.1284 C.3     1  UNL1        0.0326
@<TRIPOS>BOND
     1    15    16    1
     2    16    14    1
     3    14    13    1
     4    13    12    1
     5    12    11    1
     6    11     5    1
     7     5    10   ar
     8     5     6   ar
     9     6     7   ar
    10     7     8   ar
    11     8     9   ar
    12     8     3    1
    13     9    10   ar
    14     3     4    2
    15     3     1    1
    16     1     2    1
    17     1    17    1
    18    17    18    1
    19    18    19    2
    20    18    20    1
    21    20    29   ar
    22    20    21   ar
    23    21    22   ar
    24    22    23   ar
    25    23    28   ar
    26    23    24   ar
    27    24    25   ar
    28    25    26   ar
    29    26    27   ar
    30    26    31    1
    31    27    28   ar
    32    28    29   ar
    33    29    30    2
@<TRIPOS>MOLECULE
ZINC09453104
 28 30 0 0 0
SMALL
GASTEIGER

@<TRIPOS>ATOM
      1 C          27.1555   34.2840   25.1868 C.ar    1  UNL1        0.0089
      2 C          27.2180   34.0346   26.5030 C.ar    1  UNL1        0.0090
      3 C          26.7732   35.0520   27.4400 C.ar    1  UNL1        0.0805
      4 C          26.3045   36.2402   26.8478 C.ar    1  UNL1        0.1171
      5 S          26.4827   35.9331   25.1091 S.2     1  UNL1       -0.0721
      6 N          25.8648   37.2625   27.5714 N.ar    1  UNL1       -0.2155
      7 C          25.8501   37.2030   28.8875 C.ar    1  UNL1        0.1783
      8 N          26.2876   36.0865   29.5436 N.ar    1  UNL1       -0.2542
      9 C          26.7454   35.0157   28.8694 C.ar    1  UNL1        0.2681
     10 O          27.1324   34.0276   29.4694 O.2     1  UNL1       -0.2665
     11 C          26.2589   36.0565   30.9442 C.ar    1  UNL1        0.0687
     12 C          25.1380   35.5744   31.6068 C.ar    1  UNL1        0.0177
     13 C          25.1151   35.5403   32.9874 C.ar    1  UNL1        0.0015
     14 C          26.2023   35.9968   33.7097 C.ar    1  UNL1        0.0001
     15 C          27.3176   36.4833   33.0528 C.ar    1  UNL1        0.0015
     16 C          27.3489   36.5142   31.6723 C.ar    1  UNL1        0.0177
     17 C          26.3061   32.7810   23.4068 C.3     1  UNL1        0.0056
     18 C          27.5580   33.3852   24.0461 C.3     1  UNL1        0.0330
     19 S          25.2660   38.5832   29.8140 S.3     1  UNL1       -0.0689
     20 C          23.7833   38.9962   28.8615 C.3     1  UNL1        0.1299
     21 C          22.5652   38.4670   29.5737 C.2     1  UNL1        0.1731
     22 O          22.6867   37.8744   30.6189 O.2     1  UNL1       -0.2945
     23 C          21.1954   38.6774   28.9818 C.3     1  UNL1        0.1746
     24 C          20.9909   37.7205   27.8357 C.2     1  UNL1        0.3246
     25 O          20.6084   36.5945   28.0497 O.2     1  UNL1       -0.2496
     26 O          21.2335   38.1191   26.5772 O.3     1  UNL1       -0.4482
     27 C          22.3295   37.4703   25.8800 C.3     1  UNL1        0.2086
     28 C          23.2724   38.5326   25.3115 C.3     1  UNL1        0.0513
@<TRIPOS>BOND
     1    17    18    1
     2    18     1    1
     3     1     5   ar
     4     1     2   ar
     5     2     3   ar
     6     3     9   ar
     7     3     4   ar
     8     4     5   ar
     9     4     6   ar
    10     6     7   ar
    11     7     8   ar
    12     7    19    1
    13     8     9   ar
    14     8    11    1
    15     9    10    2
    16    11    16   ar
    17    11    12   ar
    18    12    13   ar
    19    13    14   ar
    20    14    15   ar
    21    15    16   ar
    22    19    20    1
    23    20    21    1
    24    21    22    2
    25    21    23    1
    26    23    24    1
    27    24    25    2
    28    24    26    1
    29    26    27    1
    30    27    28    1
@<TRIPOS>MOLECULE
ZINC09173550
 28 30 0 0 0
SMALL
GASTEIGER

@<TRIPOS>ATOM
      1 C          15.4065   39.2868   32.1653 C.ar    1  UNL1       -0.0136
      2 C          14.4115   39.1842   31.2719 C.ar    1  UNL1        0.0053
      3 S          15.2567   38.7812   29.7549 S.2     1  UNL1       -0.0725
      4 C          16.9231   38.7619   30.3648 C.ar    1  UNL1        0.1168
      5 C          16.7756   39.0694   31.7305 C.ar    1  UNL1        0.0763
      6 C          17.9864   39.1241   32.4903 C.ar    1  UNL1        0.2640
      7 O          17.9570   39.3836   33.6812 O.2     1  UNL1       -0.2669
      8 N          19.1584   38.8857   31.8737 N.ar    1  UNL1       -0.2730
      9 C          19.2109   38.5940   30.5414 C.ar    1  UNL1        0.1743
     10 N          18.1118   38.5423   29.8165 N.ar    1  UNL1       -0.2158
     11 C          12.9325   39.3656   31.4969 C.3     1  UNL1        0.0379
     12 C          15.2606   41.1303   33.8173 C.3     1  UNL1        0.0050
     13 C          15.1079   39.6230   33.6036 C.3     1  UNL1        0.0268
     14 S          20.7700   38.2895   29.7790 S.3     1  UNL1       -0.0724
     15 C          20.7362   39.5496   28.4801 C.3     1  UNL1        0.0913
     16 C          22.0966   40.1875   28.3637 C.ar    1  UNL1       -0.0092
     17 C          23.2217   39.3960   28.2248 C.ar    1  UNL1       -0.0033
     18 C          24.4693   39.9810   28.1184 C.ar    1  UNL1        0.0014
     19 C          24.5924   41.3577   28.1508 C.ar    1  UNL1        0.0241
     20 C          23.4683   42.1488   28.2951 C.ar    1  UNL1        0.1426
     21 C          22.2196   41.5638   28.3961 C.ar    1  UNL1        0.0207
     22 N          23.6006   43.6225   28.3359 N.pl3   1  UNL1        0.0577
     23 O          23.5722   44.2654   27.3018 O.2     1  UNL1       -0.1261
     24 O          23.7380   44.1923   29.4036 O.2     1  UNL1       -0.1261
     25 C          20.4016   38.9408   32.6468 C.3     1  UNL1        0.1429
     26 C          20.5907   40.3514   33.2085 C.3     1  UNL1        0.1668
     27 O          20.8774   40.2731   34.6062 O.3     1  UNL1       -0.3490
     28 C          20.0521   41.1122   35.4167 C.3     1  UNL1        0.1742
@<TRIPOS>BOND
     1    12    13    1
     2    13     1    1
     3     1     5   ar
     4     1     2   ar
     5     2     3   ar
     6     2    11    1
     7     3     4   ar
     8     4    10   ar
     9     4     5   ar
    10     5     6   ar
    11     6     7    2
    12     6     8   ar
    13     8     9   ar
    14     8    25    1
    15     9    10   ar
    16     9    14    1
    17    14    15    1
    18    15    16    1
    19    16    21   ar
    20    16    17   ar
    21    17    18   ar
    22    18    19   ar
    23    19    20   ar
    24    20    21   ar
    25    20    22    1
    26    22    23    2
    27    22    24    2
    28    25    26    1
    29    26    27    1
    30    27    28    1
@<TRIPOS>MOLECULE
ZINC00650584
 26 27 0 0 0
SMALL
GASTEIGER

@<TRIPOS>ATOM
      1 C          22.7439   38.7195   29.3247 C.ar    1  UNL1       -0.0851
      2 C          23.8678   39.3009   28.7263 C.ar    1  UNL1        0.0555
      3 C          25.1048   38.7335   28.9899 C.ar    1  UNL1       -0.0047
      4 C          25.1408   37.6434   29.8178 C.ar    1  UNL1        0.0996
      5 S          23.4239   37.4130   30.2384 S.2     1  UNL1       -0.1056
      6 C          26.3656   39.2963   28.3862 C.3     1  UNL1        0.0319
      7 C          26.3000   36.8654   30.2530 C.2     1  UNL1        0.3469
      8 O          26.6564   35.8947   29.6123 O.2     1  UNL1       -0.2443
      9 O          26.9742   37.2243   31.3653 O.3     1  UNL1       -0.4451
     10 C          27.0998   36.2402   32.3937 C.3     1  UNL1        0.2089
     11 C          25.7767   36.1241   33.1531 C.3     1  UNL1        0.0513
     12 C          23.7410   40.4704   27.8496 C.2     1  UNL1        0.3396
     13 O          23.5386   40.3197   26.6601 O.2     1  UNL1       -0.2450
     14 O          23.8490   41.7126   28.3630 O.3     1  UNL1       -0.4455
     15 C          22.6288   42.4933   28.4622 C.3     1  UNL1        0.2089
     16 C          22.9630   43.9011   28.9596 C.3     1  UNL1        0.0513
     17 N          21.4212   39.0972   29.2183 N.am    1  UNL1       -0.6054
     18 C          20.4574   38.3421   29.7817 C.2     1  UNL1        0.0822
     19 O          20.1068   37.3065   29.2488 O.2     1  UNL1       -0.3129
     20 C          19.9489   39.6292   33.2570 C.ar    1  UNL1        0.0073
     21 C          20.6152   39.2657   32.1438 C.ar    1  UNL1        0.0039
     22 C          19.8295   38.7705   31.0413 C.ar    1  UNL1        0.0222
     23 C          18.4619   38.7209   31.2184 C.ar    1  UNL1        0.0364
     24 S          18.2480   39.3193   32.8291 S.2     1  UNL1       -0.0907
     25 C          19.6019   41.2935   35.0622 C.3     1  UNL1        0.0056
     26 C          20.5065   40.1722   34.5475 C.3     1  UNL1        0.0330
@<TRIPOS>UNITY_ATOM_ATTR
17 1
charge -1
@<TRIPOS>BOND
     1    25    26    1
     2    26    20    1
     3    20    24   ar
     4    20    21   ar
     5    21    22   ar
     6    22    23   ar
     7    22    18    1
     8    23    24   ar
     9    18    19    2
    10    18    17    1
    11    17     1    1
    12     1     5   ar
    13     1     2   ar
    14     2     3   ar
    15     2    12    1
    16     3     4   ar
    17     3     6    1
    18     4     5   ar
    19     4     7    1
    20     7     8    2
    21     7     9    1
    22     9    10    1
    23    10    11    1
    24    12    13    2
    25    12    14    1
    26    14    15    1
    27    15    16    1
@<TRIPOS>MOLECULE
ZINC02029211
 29 31 0 0 0
SMALL
GASTEIGER

@<TRIPOS>ATOM
      1 C          20.1595   39.1191   32.5596 C.ar    1  UNL1        0.0121
      2 C          18.8332   39.2490   32.8596 C.ar    1  UNL1        0.0050
      3 C          17.8761   39.0628   31.8617 C.ar    1  UNL1        0.0735
      4 C          18.2690   38.7425   30.5501 C.ar    1  UNL1        0.1515
      5 C          19.6213   38.6189   30.2611 C.ar    1  UNL1        0.0741
      6 C          20.5592   38.8016   31.2635 C.ar    1  UNL1        0.1382
      7 O          17.3436   38.5637   29.5867 O.2     1  UNL1       -0.4500
      8 C          16.0308   38.6741   29.8009 C.ar    1  UNL1        0.1846
      9 C          15.5117   38.9793   31.0215 C.ar    1  UNL1        0.1003
     10 C          16.4364   39.1954   32.1492 C.ar    1  UNL1        0.2035
     11 O          16.0303   39.4713   33.2647 O.2     1  UNL1       -0.2863
     12 C          14.0512   39.0912   31.2125 C.ar    1  UNL1        0.1165
     13 N          13.1041   38.1849   31.0119 N.ar    1  UNL1       -0.2424
     14 C          11.8396   38.4594   31.2398 C.ar    1  UNL1        0.0664
     15 C          11.4832   39.6940   31.6792 C.ar    1  UNL1        0.0516
     16 S          13.0833   40.4878   31.7690 S.2     1  UNL1       -0.0661
     17 C          10.7856   37.4076   31.0079 C.3     1  UNL1        0.0527
     18 C          21.1951   39.3198   33.6359 C.3     1  UNL1        0.0294
     19 C          20.9638   40.6680   34.3211 C.3     1  UNL1        0.0048
     20 C          19.0357   41.5227   35.6609 C.3     1  UNL1        0.0000
     21 C          20.1339   40.4597   35.5895 C.3     1  UNL1        0.0003
     22 O          21.8805   38.6756   30.9791 O.3     1  UNL1       -0.4681
     23 C          22.2221   37.9854   29.7754 C.3     1  UNL1        0.2634
     24 C          23.4153   37.0639   30.0369 C.3     1  UNL1        0.0596
     25 C          22.5845   38.9858   28.7082 C.2     1  UNL1        0.3576
     26 O          23.6253   39.5954   28.7800 O.2     1  UNL1       -0.2461
     27 O          21.7510   39.1998   27.6780 O.3     1  UNL1       -0.4460
     28 C          21.3110   38.0337   26.9330 C.3     1  UNL1        0.2087
     29 C          22.3920   37.6336   25.9268 C.3     1  UNL1        0.0513
@<TRIPOS>BOND
     1    20    21    1
     2    21    19    1
     3    19    18    1
     4    18     1    1
     5     1     6   ar
     6     1     2   ar
     7     2     3   ar
     8     3    10   ar
     9     3     4   ar
    10     4     5   ar
    11     4     7   ar
    12     5     6   ar
    13     6    22    1
    14    22    23    1
    15    23    24    1
    16    23    25    1
    17    25    26    2
    18    25    27    1
    19    27    28    1
    20    28    29    1
    21     7     8   ar
    22     8     9   ar
    23     9    10   ar
    24     9    12    1
    25    10    11    2
    26    12    16   ar
    27    12    13   ar
    28    13    14   ar
    29    14    15   ar
    30    14    17    1
    31    15    16   ar
@<TRIPOS>MOLECULE
ZINC29969114
 29 30 0 0 0
SMALL
GASTEIGER

@<TRIPOS>ATOM
      1 C          17.0133   38.9907   31.4579 C.ar    1  UNL1        0.1727
      2 C          16.3803   38.6080   30.2920 C.ar    1  UNL1        0.0417
      3 C          14.9827   38.5433   30.2475 C.ar    1  UNL1        0.0259
      4 C          14.2346   38.8671   31.3854 C.ar    1  UNL1        0.1461
      5 C          14.8743   39.2478   32.5441 C.ar    1  UNL1        0.0643
      6 C          16.2610   39.3116   32.5874 C.ar    1  UNL1        0.1796
      7 N          12.7565   38.7998   31.3434 N.pl3   1  UNL1        0.0578
      8 O          12.1944   37.7203   31.3894 O.2     1  UNL1       -0.1261
      9 O          12.1023   39.8241   31.2628 O.2     1  UNL1       -0.1261
     10 C          19.0785   38.7045   30.3139 C.3     1  UNL1        0.2526
     11 O          18.3710   39.0546   31.5050 O.3     1  UNL1       -0.4684
     12 C          14.3031   38.1310   29.0114 C.2     1  UNL1        0.0084
     13 C          14.2693   36.8264   28.6621 C.2     1  UNL1        0.0819
     14 C          13.6136   36.4286   27.4697 C.2     1  UNL1        0.3417
     15 O          13.6847   35.2742   27.0925 O.2     1  UNL1       -0.2449
     16 O          12.9106   37.3304   26.7532 O.3     1  UNL1       -0.4403
     17 C          11.4925   37.1599   26.7082 C.3     1  UNL1        0.2377
     18 C          10.9085   38.0818   25.6690 C.ar    1  UNL1        0.0510
     19 C          10.6502   39.4030   25.9838 C.ar    1  UNL1        0.0017
     20 C          10.1141   40.2497   25.0319 C.ar    1  UNL1        0.0022
     21 C           9.8354   39.7772   23.7628 C.ar    1  UNL1        0.0319
     22 C          10.0931   38.4556   23.4445 C.ar    1  UNL1        0.1672
     23 C          10.6359   37.6074   24.3981 C.ar    1  UNL1        0.1668
     24 F          10.8936   36.3179   24.0880 F       1  UNL1       -0.2020
     25 F           9.8214   37.9933   22.2044 F       1  UNL1       -0.2018
     26 O          16.8860   39.6882   33.7328 O.3     1  UNL1       -0.4205
     27 C          16.7798   41.0629   34.1080 C.3     1  UNL1        0.5087
     28 F          16.6572   41.8518   32.9592 F       1  UNL1       -0.1550
     29 F          15.6525   41.2396   34.9175 F       1  UNL1       -0.1550
@<TRIPOS>BOND
     1    10    11    1
     2    11     1    1
     3     1     6   ar
     4     1     2   ar
     5     2     3   ar
     6     3     4   ar
     7     3    12    1
     8     4     5   ar
     9     4     7    1
    10     5     6   ar
    11     6    26    1
    12    26    27    1
    13    27    28    1
    14    27    29    1
    15     7     8    2
    16     7     9    2
    17    12    13    2
    18    13    14    1
    19    14    15    2
    20    14    16    1
    21    16    17    1
    22    17    18    1
    23    18    23   ar
    24    18    19   ar
    25    19    20   ar
    26    20    21   ar
    27    21    22   ar
    28    22    23   ar
    29    22    25    1
    30    23    24    1
@<TRIPOS>MOLECULE
ZINC05657743
 28 29 0 0 0
SMALL
GASTEIGER

@<TRIPOS>ATOM
      1 C          16.7722   39.3022   31.7226 C.ar    1  UNL1        0.0918
      2 C          17.9517   39.1259   32.5365 C.ar    1  UNL1       -0.0077
      3 C          19.0413   38.6148   31.9363 C.ar    1  UNL1        0.0326
      4 S          18.5012   38.3522   30.2599 S.2     1  UNL1       -0.0718
      5 C          16.8723   38.9255   30.3874 C.ar    1  UNL1        0.0868
      6 N          15.9018   38.9882   29.3998 N.am    1  UNL1       -0.2757
      7 C          15.2168   37.8794   29.0567 C.2     1  UNL1        0.2711
      8 O          15.4497   36.8267   29.6120 O.2     1  UNL1       -0.2707
      9 H          15.7128   39.8428   28.9491 H       1  UNL1        0.1554
     10 C          14.1617   37.9477   27.9829 C.3     1  UNL1        0.2927
     11 O          13.0422   37.0989   28.3497 O.3     1  UNL1       -0.4381
     12 C          12.5624   36.2791   27.4012 C.2     1  UNL1        0.3220
     13 O          13.3010   35.5013   26.8450 O.2     1  UNL1       -0.2497
     14 C          11.1028   36.3290   27.0301 C.3     1  UNL1        0.1364
     15 C          10.9178   37.2340   25.8393 C.ar    1  UNL1       -0.0041
     16 C          10.5865   36.7093   24.6042 C.ar    1  UNL1        0.0038
     17 C          10.4323   37.5505   23.5526 C.ar    1  UNL1        0.0351
     18 S          10.7457   39.1402   24.3023 S.2     1  UNL1       -0.0863
     19 C          11.0682   38.5753   25.9649 C.ar    1  UNL1        0.0317
     20 C          15.5318   39.8499   32.2755 C.2     1  UNL1        0.3426
     21 O          15.4845   41.0133   32.6276 O.2     1  UNL1       -0.2448
     22 O          14.4417   39.0645   32.3943 O.3     1  UNL1       -0.4454
     23 C          12.3172   38.3871   31.4156 C.3     1  UNL1        0.0513
     24 C          13.2032   39.5652   31.8252 C.3     1  UNL1        0.2089
     25 C          17.9613   39.4982   33.9968 C.3     1  UNL1        0.0271
     26 C          19.1733   40.3851   34.2890 C.3     1  UNL1        0.0044
     27 C          18.7014   41.7143   34.8819 C.3     1  UNL1        0.0003
     28 C          20.0929   39.6792   35.2874 C.3     1  UNL1        0.0003
@<TRIPOS>BOND
     1    23    24    1
     2    24    22    1
     3    22    20    1
     4    20    21    2
     5    20     1    1
     6     1     5   ar
     7     1     2   ar
     8     2     3   ar
     9     2    25    1
    10     3     4   ar
    11     4     5   ar
    12     5     6    1
    13     6     7   am
    14     7     8    2
    15     7    10    1
    16    10    11    1
    17    11    12    1
    18    12    13    2
    19    12    14    1
    20    14    15    1
    21    15    19   ar
    22    15    16   ar
    23    16    17   ar
    24    17    18   ar
    25    18    19   ar
    26    25    26    1
    27    26    27    1
    28    26    28    1
    29     6     9    1
@<TRIPOS>MOLECULE
ZINC27621660
 29 31 0 0 0
SMALL
GASTEIGER

@<TRIPOS>ATOM
      1 C          13.2277   37.6251   28.2685 C.2     1  UNL1        0.0824
      2 C          12.9025   38.0351   29.5227 C.2     1  UNL1        0.0131
      3 C          13.9190   38.4203   30.4261 C.ar    1  UNL1        0.0297
      4 C          13.8083   38.7773   31.7670 C.ar    1  UNL1        0.0070
      5 C          14.9420   39.1114   32.4500 C.ar    1  UNL1        0.0070
      6 C          16.1559   39.0920   31.7798 C.ar    1  UNL1        0.0311
      7 S          15.6745   38.5738   30.1407 S.2     1  UNL1       -0.0869
      8 C          17.5035   39.4121   32.2926 C.ar    1  UNL1        0.0285
      9 C          18.6043   38.6491   31.8968 C.ar    1  UNL1        0.0022
     10 C          19.8599   38.9539   32.3792 C.ar    1  UNL1        0.0001
     11 C          20.0296   40.0094   33.2580 C.ar    1  UNL1        0.0017
     12 C          18.9444   40.7729   33.6498 C.ar    1  UNL1        0.0241
     13 C          17.6828   40.4793   33.1751 C.ar    1  UNL1        0.1433
     14 N          16.5221   41.2939   33.5997 N.pl3   1  UNL1        0.0577
     15 O          16.1190   42.1970   32.8887 O.2     1  UNL1       -0.1261
     16 O          15.9702   41.0613   34.6603 O.2     1  UNL1       -0.1261
     17 C          12.2126   37.2404   27.3663 C.2     1  UNL1        0.3418
     18 O          11.3312   36.4832   27.7288 O.2     1  UNL1       -0.2449
     19 O          12.2194   37.7124   26.1013 O.3     1  UNL1       -0.4395
     20 C          10.9624   38.1112   25.5510 C.3     1  UNL1        0.2471
     21 C          10.3405   36.9354   24.7948 C.3     1  UNL1        0.0578
     22 C          10.9145   40.9896   23.4059 C.ar    1  UNL1        0.1806
     23 N          10.2858   40.1700   24.2672 N.ar    1  UNL1       -0.1919
     24 C          11.1720   39.2637   24.6028 C.ar    1  UNL1        0.2766
     25 O          12.2985   39.5606   23.9479 O.2     1  UNL1       -0.3336
     26 N          12.1284   40.5482   23.2643 N.ar    1  UNL1       -0.0605
     27 C          10.3204   42.1982   22.7295 C.3     1  UNL1        0.0692
     28 C          10.9149   43.0800   20.4687 C.3     1  UNL1        0.0005
     29 C          11.4006   42.9059   21.9090 C.3     1  UNL1        0.0081
@<TRIPOS>BOND
     1    28    29    1
     2    29    27    1
     3    27    22    1
     4    22    26   ar
     5    22    23   ar
     6    23    24   ar
     7    24    25   ar
     8    24    20    1
     9    25    26   ar
    10    20    21    1
    11    20    19    1
    12    19    17    1
    13    17    18    2
    14    17     1    1
    15     1     2    2
    16     2     3    1
    17     3     7   ar
    18     3     4   ar
    19     4     5   ar
    20     5     6   ar
    21     6     7   ar
    22     6     8    1
    23     8    13   ar
    24     8     9   ar
    25     9    10   ar
    26    10    11   ar
    27    11    12   ar
    28    12    13   ar
    29    13    14    1
    30    14    15    2
    31    14    16    2
@<TRIPOS>MOLECULE
ZINC04514491
 29 30 0 0 0
SMALL
GASTEIGER

@<TRIPOS>ATOM
      1 C          20.8220   38.8718   29.0041 C.2     1  UNL1        0.2493
      2 O          20.2207   39.0228   27.9586 O.2     1  UNL1       -0.2699
      3 N          22.1344   38.5656   28.9886 N.am    1  UNL1       -0.2699
      4 C          18.7865   39.3101   32.7064 C.ar    1  UNL1       -0.0222
      5 C          20.0760   39.7921   32.5682 C.ar    1  UNL1       -0.0041
      6 C          20.7428   39.6529   31.3685 C.ar    1  UNL1        0.0042
      7 C          20.1136   39.0241   30.2929 C.ar    1  UNL1        0.0536
      8 C          18.8128   38.5397   30.4392 C.ar    1  UNL1        0.0042
      9 C          18.1572   38.6859   31.6441 C.ar    1  UNL1       -0.0041
     10 C          18.0644   39.4654   34.0201 C.3     1  UNL1        0.0264
     11 C          17.6229   40.9203   34.1905 C.3     1  UNL1        0.0047
     12 C          16.0951   40.9967   34.1586 C.3     1  UNL1        0.0003
     13 C          14.8004   40.1088   32.2150 C.3     1  UNL1        0.0000
     14 C          15.6287   41.2873   32.7307 C.3     1  UNL1        0.0000
     15 C          22.8295   38.2572   30.2407 C.3     1  UNL1        0.0941
     16 C          23.7208   37.0298   30.0403 C.3     1  UNL1        0.0215
     17 C          24.7418   36.9500   31.1771 C.3     1  UNL1        0.0018
     18 C          24.9266   35.4898   31.5949 C.3     1  UNL1        0.0001
     19 C          25.2354   35.4229   33.0921 C.3     1  UNL1        0.0000
     20 C          22.8659   38.5411   27.7194 C.3     1  UNL1        0.1463
     21 C          23.4963   39.8882   27.4769 C.ar    1  UNL1        0.1086
     22 N          23.1169   41.0583   27.9201 N.ar    1  UNL1       -0.2344
     23 C          23.8124   42.1505   27.5980 C.ar    1  UNL1        0.1634
     24 C          24.9103   41.9878   26.7905 C.ar    1  UNL1        0.0623
     25 S          24.9005   40.2717   26.5345 S.2     1  UNL1       -0.0684
     26 C          23.4141   43.4801   28.0857 C.2     1  UNL1        0.3598
     27 O          22.7630   43.5829   29.1070 O.2     1  UNL1       -0.2432
     28 O          23.7714   44.5843   27.4001 O.3     1  UNL1       -0.4403
     29 C          24.6469   45.5252   28.0757 C.3     1  UNL1        0.2560
@<TRIPOS>BOND
     1    13    14    1
     2    14    12    1
     3    12    11    1
     4    11    10    1
     5    10     4    1
     6     4     9   ar
     7     4     5   ar
     8     5     6   ar
     9     6     7   ar
    10     7     8   ar
    11     7     1    1
    12     8     9   ar
    13     1     2    2
    14     1     3   am
    15     3    15    1
    16     3    20    1
    17    15    16    1
    18    16    17    1
    19    17    18    1
    20    18    19    1
    21    20    21    1
    22    21    25   ar
    23    21    22   ar
    24    22    23   ar
    25    23    24   ar
    26    23    26    1
    27    24    25   ar
    28    26    27    2
    29    26    28    1
    30    28    29    1
@<TRIPOS>MOLECULE
ZINC06639123
 30 31 0 0 0
SMALL
GASTEIGER

@<TRIPOS>ATOM
      1 C          21.2228   38.0001   28.0774 C.2     1  UNL1        0.3177
      2 O          20.5805   38.2845   27.0943 O.2     1  UNL1       -0.2501
      3 O          22.5631   37.9613   28.0154 O.3     1  UNL1       -0.4399
      4 C          23.2509   39.2252   27.8209 C.3     1  UNL1        0.2766
      5 C          24.5571   39.2071   28.5724 C.2     1  UNL1        0.2167
      6 O          25.2250   40.2159   28.6516 O.2     1  UNL1       -0.2874
      7 C          24.8062   36.2462   32.5765 C.3     1  UNL1        0.0307
      8 C          25.1456   36.5337   31.1366 C.ar    1  UNL1       -0.0260
      9 C          24.7059   37.6999   30.5462 C.ar    1  UNL1       -0.0019
     10 C          25.0218   37.9648   29.2100 C.ar    1  UNL1        0.0339
     11 C          25.7824   37.0433   28.4827 C.ar    1  UNL1       -0.0232
     12 C          26.2099   35.8795   29.0857 C.ar    1  UNL1       -0.0299
     13 C          25.8971   35.6267   30.4103 C.ar    1  UNL1       -0.0300
     14 C          26.3727   34.3544   31.0631 C.3     1  UNL1        0.0304
     15 C          27.0245   34.8826   28.3024 C.3     1  UNL1        0.0304
     16 C          26.1279   37.3187   27.0420 C.3     1  UNL1        0.0308
     17 C          20.5191   37.6891   29.3733 C.3     1  UNL1        0.1142
     18 C          21.0079   38.6468   30.4616 C.3     1  UNL1        0.0382
     19 C          19.8514   39.0334   31.3471 C.ar    1  UNL1       -0.0154
     20 C          20.0847   39.7106   32.5293 C.ar    1  UNL1        0.0360
     21 C          19.0228   40.0732   33.3440 C.ar    1  UNL1        0.1751
     22 C          17.7235   39.7446   32.9762 C.ar    1  UNL1        0.2060
     23 C          17.4936   39.0587   31.7894 C.ar    1  UNL1        0.1751
     24 C          18.5605   38.7051   30.9774 C.ar    1  UNL1        0.0360
     25 O          16.2240   38.7345   31.4254 O.3     1  UNL1       -0.4683
     26 C          15.6953   39.3840   30.2675 C.3     1  UNL1        0.2526
     27 O          16.6790   40.0937   33.7757 O.3     1  UNL1       -0.4654
     28 C          16.0697   41.3628   33.5300 C.3     1  UNL1        0.2528
     29 O          19.2529   40.7447   34.5040 O.3     1  UNL1       -0.4683
     30 C          20.4464   40.4163   35.2180 C.3     1  UNL1        0.2526
@<TRIPOS>BOND
     1     7     8    1
     2     8    13   ar
     3     8     9   ar
     4     9    10   ar
     5    10    11   ar
     6    10     5    1
     7    11    12   ar
     8    11    16    1
     9    12    13   ar
    10    12    15    1
    11    13    14    1
    12     5     6    2
    13     5     4    1
    14     4     3    1
    15     3     1    1
    16     1     2    2
    17     1    17    1
    18    17    18    1
    19    18    19    1
    20    19    24   ar
    21    19    20   ar
    22    20    21   ar
    23    21    22   ar
    24    21    29    1
    25    22    23   ar
    26    22    27    1
    27    23    24   ar
    28    23    25    1
    29    25    26    1
    30    27    28    1
    31    29    30    1
@<TRIPOS>MOLECULE
ZINC05430121
 29 30 0 0 0
SMALL
GASTEIGER

@<TRIPOS>ATOM
      1 N          25.7103   38.3933   28.7272 N.3     1  UNL1       -0.1438
      2 S          27.1743   37.8012   28.2288 S.O2    1  UNL1        0.0632
      3 O          27.2379   38.0053   26.8239 O.2     1  UNL1       -0.1528
      4 O          28.1492   38.3257   29.1196 O.2     1  UNL1       -0.1528
      5 C          27.0763   31.8317   29.1015 C.3     1  UNL1        0.0310
      6 C          27.1006   33.3227   28.8835 C.ar    1  UNL1       -0.0224
      7 C          27.0526   33.8344   27.6003 C.ar    1  UNL1       -0.0072
      8 C          27.0750   35.2021   27.4004 C.ar    1  UNL1       -0.0039
      9 C          27.1453   36.0579   28.4836 C.ar    1  UNL1        0.1142
     10 C          27.1985   35.5460   29.7666 C.ar    1  UNL1       -0.0039
     11 C          27.1704   34.1785   29.9668 C.ar    1  UNL1       -0.0072
     12 C          27.2813   36.4789   30.9473 C.3     1  UNL1        0.0324
     13 C          27.0232   35.7600   26.0014 C.3     1  UNL1        0.0324
     14 C          25.6218   39.7368   29.3047 C.3     1  UNL1        0.1011
     15 C          25.8362   40.7795   28.2057 C.3     1  UNL1        0.0455
     16 C          25.0309   42.0138   28.5204 C.ar    1  UNL1       -0.0207
     17 C          23.6974   42.0789   28.1623 C.ar    1  UNL1       -0.0042
     18 C          22.9574   43.2093   28.4552 C.ar    1  UNL1       -0.0003
     19 C          23.5537   44.2784   29.0973 C.ar    1  UNL1       -0.0000
     20 C          24.8887   44.2156   29.4503 C.ar    1  UNL1       -0.0003
     21 C          25.6273   43.0832   29.1620 C.ar    1  UNL1       -0.0042
     22 C          24.5038   37.5738   28.5906 C.3     1  UNL1        0.2048
     23 C          23.7248   38.0241   27.3817 C.2     1  UNL1        0.3361
     24 O          24.0063   37.5954   26.2876 O.2     1  UNL1       -0.2484
     25 O          22.7184   38.9014   27.5203 O.3     1  UNL1       -0.4356
     26 C          21.7545   38.6378   28.5737 C.3     1  UNL1        0.2580
     27 C          20.7911   39.8207   28.6911 C.3     1  UNL1        0.0645
     28 C          20.9966   37.4179   28.2511 C.1     1  UNL1        0.1167
     29 N          20.4117   36.4765   28.0021 N.1     1  UNL1       -0.1922
@<TRIPOS>BOND
     1     5     6    1
     2     6    11   ar
     3     6     7   ar
     4     7     8   ar
     5     8     9   ar
     6     8    13    1
     7     9    10   ar
     8     9     2    1
     9    10    11   ar
    10    10    12    1
    11     2     3    2
    12     2     4    2
    13     2     1    1
    14     1    14    1
    15     1    22    1
    16    14    15    1
    17    15    16    1
    18    16    21   ar
    19    16    17   ar
    20    17    18   ar
    21    18    19   ar
    22    19    20   ar
    23    20    21   ar
    24    22    23    1
    25    23    24    2
    26    23    25    1
    27    25    26    1
    28    26    27    1
    29    26    28    1
    30    28    29    3
@<TRIPOS>MOLECULE
ZINC23961017
 25 26 0 0 0
SMALL
GASTEIGER

@<TRIPOS>ATOM
      1 N          20.3383   38.9272   31.0712 N.am    1  UNL1       -0.3005
      2 C          20.2420   38.8586   29.7286 C.2     1  UNL1        0.2458
      3 O          19.2319   38.4208   29.2134 O.2     1  UNL1       -0.2701
      4 H          21.1564   39.2818   31.4886 H       1  UNL1        0.1497
      5 C          21.3651   39.3159   28.8826 C.ar    1  UNL1        0.0523
      6 C          22.0599   38.4030   28.0872 C.ar    1  UNL1        0.0061
      7 C          23.1107   38.8323   27.3030 C.ar    1  UNL1        0.0230
      8 C          23.4720   40.1671   27.2939 C.ar    1  UNL1        0.1275
      9 C          22.7837   41.0830   28.0774 C.ar    1  UNL1       -0.0681
     10 C          21.7307   40.6619   28.8724 C.ar    1  UNL1       -0.0105
     11 O          23.1436   42.3935   28.0649 O.co2   1  UNL1       -0.8718
     12 N          24.5967   40.6208   26.4451 N.pl3   1  UNL1        0.0565
     13 O          25.7289   40.6406   26.8938 O.2     1  UNL1       -0.1261
     14 O          24.3899   40.9745   25.2982 O.2     1  UNL1       -0.1261
     15 C          19.2256   38.4742   31.9095 C.3     1  UNL1        0.0940
     16 C          19.1176   39.3728   33.1431 C.3     1  UNL1        0.0416
     17 C          19.3966   38.5478   34.4010 C.3     1  UNL1        0.0064
     18 C          14.2760   39.2153   31.8865 C.3     1  UNL1        0.0310
     19 C          15.4132   39.8789   32.6196 C.ar    1  UNL1       -0.0222
     20 C          15.1829   41.0211   33.3639 C.ar    1  UNL1       -0.0046
     21 C          16.2258   41.6294   34.0367 C.ar    1  UNL1       -0.0049
     22 C          17.4993   41.0961   33.9650 C.ar    1  UNL1       -0.0258
     23 C          17.7294   39.9541   33.2213 C.ar    1  UNL1       -0.0251
     24 C          16.6871   39.3483   32.5444 C.ar    1  UNL1       -0.0088
     25 C          18.6364   41.7597   34.6981 C.3     1  UNL1        0.0307
@<TRIPOS>UNITY_ATOM_ATTR
11 1
charge -1
@<TRIPOS>BOND
     1    18    19    1
     2    19    24   ar
     3    19    20   ar
     4    20    21   ar
     5    21    22   ar
     6    22    23   ar
     7    22    25    1
     8    23    24   ar
     9    23    16    1
    10    16    17    1
    11    16    15    1
    12    15     1    1
    13     1     2   am
    14     2     3    2
    15     2     5    1
    16     5    10   ar
    17     5     6   ar
    18     6     7   ar
    19     7     8   ar
    20     8     9   ar
    21     8    12    1
    22     9    10   ar
    23     9    11    1
    24    12    13    2
    25    12    14    2
    26     1     4    1
@<TRIPOS>MOLECULE
ZINC29240787
 25 27 0 0 0
SMALL
GASTEIGER

@<TRIPOS>ATOM
      1 C          23.2178   38.5071   29.2625 C.ar    1  UNL1        0.0993
      2 C          22.0755   38.0241   29.9021 C.ar    1  UNL1        0.0224
      3 C          20.8636   38.6750   29.7310 C.ar    1  UNL1        0.0451
      4 C          20.7892   39.8048   28.9241 C.ar    1  UNL1        0.0160
      5 C          21.9206   40.2832   28.2905 C.ar    1  UNL1        0.0255
      6 C          23.1320   39.6426   28.4544 C.ar    1  UNL1        0.1492
      7 N          24.3406   40.1595   27.7738 N.pl3   1  UNL1        0.0579
      8 O          25.0874   40.9250   28.3567 O.2     1  UNL1       -0.1261
      9 O          24.5882   39.8195   26.6308 O.2     1  UNL1       -0.1261
     10 C          24.5132   37.8192   29.4392 C.2     1  UNL1        0.3430
     11 O          25.1632   37.9983   30.4497 O.2     1  UNL1       -0.2448
     12 C          26.3963   37.0438   28.1936 C.3     1  UNL1        0.2560
     13 O          24.9737   36.9933   28.4798 O.3     1  UNL1       -0.4413
     14 N          19.7170   38.1959   30.3695 N.pl3   1  UNL1       -0.3306
     15 H          19.5735   37.2263   30.4612 H       1  UNL1        0.1471
     16 C          18.7283   39.1364   30.9026 C.3     1  UNL1        0.0916
     17 C          17.3308   38.5404   30.7465 C.3     1  UNL1        0.0244
     18 C          16.3376   39.4332   31.4999 C.3     1  UNL1        0.0067
     19 C          16.5879   39.2741   32.9982 C.3     1  UNL1        0.0262
     20 C          18.0471   39.4720   33.3156 C.ar    1  UNL1       -0.0246
     21 C          19.0304   39.4050   32.3538 C.ar    1  UNL1       -0.0085
     22 C          20.3585   39.5908   32.7141 C.ar    1  UNL1       -0.0030
     23 C          20.7001   39.8449   34.0265 C.ar    1  UNL1       -0.0003
     24 C          19.7128   39.9156   34.9912 C.ar    1  UNL1       -0.0003
     25 C          18.3928   39.7296   34.6356 C.ar    1  UNL1       -0.0045
@<TRIPOS>BOND
     1    12    13    1
     2    13    10    1
     3    10    11    2
     4    10     1    1
     5     1     6   ar
     6     1     2   ar
     7     2     3   ar
     8     3     4   ar
     9     3    14    1
    10     4     5   ar
    11     5     6   ar
    12     6     7    1
    13     7     8    2
    14     7     9    2
    15    14    16    1
    16    16    21    1
    17    16    17    1
    18    17    18    1
    19    18    19    1
    20    19    20    1
    21    20    25   ar
    22    20    21   ar
    23    21    22   ar
    24    22    23   ar
    25    23    24   ar
    26    24    25   ar
    27    14    15    1
@<TRIPOS>MOLECULE
ZINC06428790
 25 26 0 0 0
SMALL
GASTEIGER

@<TRIPOS>ATOM
      1 C          17.9091   38.7341   31.0376 C.2     1  UNL1        0.2592
      2 O          17.4818   38.7730   32.1757 O.2     1  UNL1       -0.2691
      3 N          17.0576   38.5921   30.0026 N.am    1  UNL1       -0.2798
      4 H          17.4073   38.4849   29.0886 H       1  UNL1        0.1552
      5 C          15.6826   38.5969   30.2261 C.ar    1  UNL1        0.0506
      6 C          15.1334   39.4752   31.1556 C.ar    1  UNL1        0.0147
      7 C          13.7748   39.4860   31.3755 C.ar    1  UNL1        0.0024
      8 C          12.9473   38.6062   30.6711 C.ar    1  UNL1        0.0141
      9 C          13.5031   37.7215   29.7420 C.ar    1  UNL1        0.0024
     10 C          14.8619   37.7194   29.5236 C.ar    1  UNL1        0.0147
     11 C          11.4919   38.6115   30.9073 C.2     1  UNL1        0.0729
     12 O          10.9618   37.6657   31.4559 O.co2   1  UNL1       -0.5446
     13 O          10.7495   39.6655   30.5149 O.co2   1  UNL1       -0.5446
     14 C          19.8564   38.5978   29.5430 C.2     1  UNL1        0.0149
     15 C          19.3562   38.8424   30.7906 C.2     1  UNL1        0.1219
     16 C          23.9499   39.3250   28.7215 C.ar    1  UNL1       -0.0222
     17 C          23.0110   40.3094   28.4644 C.ar    1  UNL1       -0.0043
     18 C          21.6776   40.0816   28.7286 C.ar    1  UNL1       -0.0003
     19 C          21.2736   38.8495   29.2585 C.ar    1  UNL1        0.0008
     20 C          22.2310   37.8612   29.5205 C.ar    1  UNL1       -0.0003
     21 C          23.5594   38.1043   29.2452 C.ar    1  UNL1       -0.0043
     22 C          25.7750   40.9953   28.8888 C.3     1  UNL1        0.0050
     23 C          25.4055   39.5835   28.4292 C.3     1  UNL1        0.0264
     24 C          20.2397   39.2041   31.8579 C.1     1  UNL1        0.1050
     25 N          20.9407   39.4910   32.7046 N.1     1  UNL1       -0.1907
@<TRIPOS>UNITY_ATOM_ATTR
13 1
charge -1
@<TRIPOS>BOND
     1    22    23    1
     2    23    16    1
     3    16    21   ar
     4    16    17   ar
     5    17    18   ar
     6    18    19   ar
     7    19    20   ar
     8    19    14    1
     9    20    21   ar
    10    14    15    2
    11    15    24    1
    12    15     1    1
    13    24    25    3
    14     1     2    2
    15     1     3   am
    16     3     5    1
    17     5    10   ar
    18     5     6   ar
    19     6     7   ar
    20     7     8   ar
    21     8     9   ar
    22     8    11    1
    23     9    10   ar
    24    11    12   ar
    25    11    13   ar
    26     3     4    1
@<TRIPOS>MOLECULE
ZINC17054267
 23 24 0 0 0
SMALL
GASTEIGER

@<TRIPOS>ATOM
      1 C          19.4250   38.5874   30.3708 C.2     1  UNL1        0.2650
      2 O          19.3307   38.2799   31.5442 O.2     1  UNL1       -0.2684
      3 N          18.3164   38.7012   29.6128 N.am    1  UNL1       -0.2023
      4 H          18.3927   38.9499   28.6633 H       1  UNL1        0.1776
      5 C          23.0480   38.2954   29.4852 C.ar    1  UNL1        0.0071
      6 C          21.8779   37.9900   30.0797 C.ar    1  UNL1        0.0072
      7 C          20.7495   38.8349   29.7792 C.ar    1  UNL1        0.0616
      8 C          20.9677   39.8897   28.9169 C.ar    1  UNL1        0.0397
      9 S          22.6463   39.7372   28.5199 S.2     1  UNL1       -0.0906
     10 C          25.4847   38.6272   29.8032 C.3     1  UNL1        0.0052
     11 C          24.3748   37.5918   29.6113 C.3     1  UNL1        0.0285
     12 C          24.3406   36.6512   30.8175 C.3     1  UNL1        0.0052
     13 N          17.0555   38.4654   30.1760 N.2     1  UNL1       -0.1773
     14 C          16.0227   39.1290   29.7554 C.2     1  UNL1        0.1192
     15 C          14.6953   38.8809   30.3483 C.ar    1  UNL1        0.0431
     16 C          14.2799   39.6063   31.4677 C.ar    1  UNL1        0.0033
     17 C          13.0372   39.3694   32.0166 C.ar    1  UNL1        0.0002
     18 C          12.2043   38.4119   31.4644 C.ar    1  UNL1        0.0017
     19 C          12.6068   37.6935   30.3528 C.ar    1  UNL1        0.0241
     20 C          13.8474   37.9199   29.7931 C.ar    1  UNL1        0.1444
     21 N          14.2785   37.1466   28.6069 N.pl3   1  UNL1        0.0577
     22 O          14.9677   36.1521   28.7457 O.2     1  UNL1       -0.1261
     23 O          13.9440   37.5049   27.4918 O.2     1  UNL1       -0.1261
@<TRIPOS>BOND
     1    10    11    1
     2    11    12    1
     3    11     5    1
     4     5     9   ar
     5     5     6   ar
     6     6     7   ar
     7     7     8   ar
     8     7     1    1
     9     8     9   ar
    10     1     2    2
    11     1     3   am
    12     3    13    1
    13    13    14    2
    14    14    15    1
    15    15    20   ar
    16    15    16   ar
    17    16    17   ar
    18    17    18   ar
    19    18    19   ar
    20    19    20   ar
    21    20    21    1
    22    21    22    2
    23    21    23    2
    24     3     4    1
@<TRIPOS>MOLECULE
ZINC04491442
 22 23 0 0 0
SMALL
GASTEIGER

@<TRIPOS>ATOM
      1 N          19.5023   37.9760   29.9817 N.pl3   1  UNL1       -0.2279
      2 H          19.1760   37.1371   29.5829 H       1  UNL1        0.1751
      3 C          17.1090   39.4402   32.2870 C.ar    1  UNL1        0.1259
      4 C          17.4302   38.8358   31.0835 C.ar    1  UNL1        0.1147
      5 C          18.8230   38.5499   30.9825 C.ar    1  UNL1        0.1236
      6 S          19.4164   39.1615   32.5465 S.2     1  UNL1        0.0306
      7 N          18.0658   39.6794   33.1721 N.ar    1  UNL1       -0.2009
      8 C          15.7197   41.3495   33.6700 C.3     1  UNL1        0.0757
      9 S          15.4416   39.8883   32.6387 S.3     1  UNL1       -0.0927
     10 C          16.4752   38.5333   30.0602 C.1     1  UNL1        0.1043
     11 N          15.7175   38.2933   29.2485 N.1     1  UNL1       -0.1907
     12 N          20.5842   38.5223   29.5399 N.2     1  UNL1       -0.1793
     13 C          20.5262   39.6747   28.8877 C.2     1  UNL1        0.1175
     14 C          21.7127   40.2738   28.4032 C.ar    1  UNL1        0.0208
     15 C          22.6548   39.5069   27.6897 C.ar    1  UNL1        0.0033
     16 C          23.7943   40.0973   27.2220 C.ar    1  UNL1        0.0241
     17 C          24.0310   41.4442   27.4570 C.ar    1  UNL1        0.1429
     18 C          23.1128   42.2081   28.1631 C.ar    1  UNL1        0.0241
     19 C          21.9638   41.6404   28.6357 C.ar    1  UNL1        0.0033
     20 N          25.2742   42.0715   26.9504 N.pl3   1  UNL1        0.0577
     21 O          26.4455   41.6628   27.3926 O.2     1  UNL1       -0.1261
     22 O          25.2079   43.0376   26.0579 O.2     1  UNL1       -0.1261
@<TRIPOS>BOND
     1     8     9    1
     2     9     3    1
     3     3     7   ar
     4     3     4   ar
     5     4     5   ar
     6     4    10    1
     7     5     6   ar
     8     5     1    1
     9     6     7   ar
    10     1    12    1
    11    12    13    2
    12    13    14    1
    13    14    19   ar
    14    14    15   ar
    15    15    16   ar
    16    16    17   ar
    17    17    18   ar
    18    17    20    1
    19    18    19   ar
    20    20    21    2
    21    20    22    2
    22    10    11    3
    23     1     2    1
@<TRIPOS>MOLECULE
ZINC27751627
 23 24 0 0 0
SMALL
GASTEIGER

@<TRIPOS>ATOM
      1 C          17.8151   39.6496   32.8964 C.ar    1  UNL1        0.1194
      2 C          19.2056   39.6421   33.0874 C.ar    1  UNL1        0.0923
      3 C          20.0420   39.2087   32.0513 C.ar    1  UNL1        0.0235
      4 C          19.4682   38.7877   30.8514 C.ar    1  UNL1        0.1292
      5 C          18.0574   38.8082   30.7094 C.ar    1  UNL1        0.2283
      6 O          17.5492   38.4421   29.6645 O.3     1  UNL1       -0.4918
      7 N          17.2763   39.2296   31.7206 N.ar    1  UNL1       -0.2046
      8 H          18.0901   38.1480   28.9582 H       1  UNL1        0.2938
      9 C          15.9068   41.5576   33.3507 C.3     1  UNL1        0.0757
     10 S          16.7581   40.2009   34.1938 S.3     1  UNL1       -0.0933
     11 C          20.3165   38.3276   29.7470 C.2     1  UNL1        0.3461
     12 O          20.1018   37.2516   29.2228 O.2     1  UNL1       -0.2447
     13 O          21.3347   39.0980   29.3129 O.3     1  UNL1       -0.4403
     14 C          20.9892   40.2507   28.5004 C.3     1  UNL1        0.2369
     15 C          22.1483   41.2134   28.4755 C.ar    1  UNL1        0.0405
     16 C          21.9461   42.5624   28.7280 C.ar    1  UNL1        0.0033
     17 C          23.0407   43.4112   28.6951 C.ar    1  UNL1        0.0306
     18 C          24.2908   42.8885   28.4134 C.ar    1  UNL1        0.1383
     19 N          24.4453   41.5994   28.1782 N.ar    1  UNL1       -0.2326
     20 C          23.4261   40.7625   28.2066 C.ar    1  UNL1        0.0991
     21 CL         25.6711   43.9405   28.3694 Cl      1  UNL1       -0.0613
     22 C          19.7651   40.0797   34.3309 C.1     1  UNL1        0.1025
     23 N          20.2090   40.4268   35.3172 N.1     1  UNL1       -0.1908
@<TRIPOS>BOND
     1     9    10    1
     2    10     1    1
     3     1     7   ar
     4     1     2   ar
     5     2     3   ar
     6     2    22    1
     7     3     4   ar
     8     4     5   ar
     9     4    11    1
    10     5     6    1
    11     5     7   ar
    12    11    12    2
    13    11    13    1
    14    13    14    1
    15    14    15    1
    16    15    20   ar
    17    15    16   ar
    18    16    17   ar
    19    17    18   ar
    20    18    19   ar
    21    18    21    1
    22    19    20   ar
    23    22    23    3
    24     6     8    1
@<TRIPOS>MOLECULE
ZINC31524217
 23 24 0 0 0
SMALL
GASTEIGER

@<TRIPOS>ATOM
      1 C          12.7171   37.8384   29.7134 C.ar    1  UNL1        0.1557
      2 C          13.9847   38.3013   30.0534 C.ar    1  UNL1        0.2053
      3 C          14.1034   39.1556   31.1450 C.ar    1  UNL1        0.1592
      4 N          13.0086   39.4897   31.8263 N.ar    1  UNL1       -0.2072
      5 C          11.8264   39.0266   31.4754 C.ar    1  UNL1        0.2013
      6 N          11.6721   38.2195   30.4456 N.ar    1  UNL1       -0.2074
      7 C          11.9922   37.5028   27.3766 C.3     1  UNL1        0.1097
      8 N          12.5455   36.9885   28.6318 N.pl3   1  UNL1       -0.3152
      9 H          12.7954   36.0392   28.7071 H       1  UNL1        0.1483
     10 N          15.1752   37.8990   29.2709 N.pl3   1  UNL1        0.0633
     11 O          15.9276   38.7479   28.8273 O.2     1  UNL1       -0.1259
     12 O          15.4023   36.7193   29.0708 O.2     1  UNL1       -0.1259
     13 N          15.3435   39.6478   31.5214 N.pl3   1  UNL1       -0.2858
     14 C          15.3501   41.1167   31.5177 C.3     1  UNL1        0.1139
     15 C          15.7418   39.1229   32.8343 C.3     1  UNL1        0.1221
     16 C          17.0293   39.7758   33.2669 C.ar    1  UNL1        0.0357
     17 C          17.0209   40.7212   34.2784 C.ar    1  UNL1        0.1386
     18 C          18.2055   41.3156   34.6790 C.ar    1  UNL1        0.0294
     19 C          19.3937   40.9740   34.0612 C.ar    1  UNL1        0.0032
     20 C          19.4012   40.0348   33.0473 C.ar    1  UNL1        0.0113
     21 C          18.2191   39.4351   32.6498 C.ar    1  UNL1        0.0575
     22 CL         18.2298   38.2547   31.3769 Cl      1  UNL1       -0.0824
     23 F          15.8584   41.0593   34.8779 F       1  UNL1       -0.2044
@<TRIPOS>BOND
     1     7     8    1
     2     8     1    1
     3     1     6   ar
     4     1     2   ar
     5     2     3   ar
     6     2    10    1
     7     3     4   ar
     8     3    13    1
     9     4     5   ar
    10     5     6   ar
    11    13    14    1
    12    13    15    1
    13    15    16    1
    14    16    21   ar
    15    16    17   ar
    16    17    18   ar
    17    17    23    1
    18    18    19   ar
    19    19    20   ar
    20    20    21   ar
    21    21    22    1
    22    10    11    2
    23    10    12    2
    24     8     9    1
@<TRIPOS>MOLECULE
ZINC23619679
 23 25 0 0 0
SMALL
GASTEIGER

@<TRIPOS>ATOM
      1 C          11.7871   37.8341   26.4679 C.ar    1  UNL1        0.1660
      2 N          12.5725   38.3818   25.4783 N.ar    1  UNL1       -0.1328
      3 N          12.0900   39.2742   24.7264 N.ar    1  UNL1       -0.1252
      4 C          10.7934   39.7037   24.8843 C.ar    1  UNL1        0.1828
      5 S          10.2576   38.7253   26.2173 S.2     1  UNL1       -0.0242
      6 N          10.1182   40.6293   24.1893 N.pl3   1  UNL1       -0.3132
      7 H           9.1804   40.8270   24.4146 H       1  UNL1        0.1487
      8 C          10.7755   41.3470   23.0943 C.3     1  UNL1        0.0709
      9 C           9.8938   42.5152   22.6485 C.3     1  UNL1        0.0195
     10 C          10.5802   43.2648   21.5050 C.3     1  UNL1        0.0017
     11 C          10.7974   42.3116   20.3281 C.3     1  UNL1        0.0001
     12 C          11.6791   41.1434   20.7739 C.3     1  UNL1        0.0017
     13 C          10.9927   40.3938   21.9175 C.3     1  UNL1        0.0195
     14 S          12.1686   36.6252   27.6185 S.3     1  UNL1       -0.0390
     15 C          12.2956   39.1203   31.3449 C.ar    1  UNL1        0.0224
     16 C          13.4984   38.6925   30.7996 C.ar    1  UNL1        0.0278
     17 C          13.4655   37.9225   29.6502 C.ar    1  UNL1        0.1666
     18 C          12.2306   37.6044   29.0820 C.ar    1  UNL1        0.1350
     19 N          11.1031   38.0340   29.6348 N.ar    1  UNL1       -0.2356
     20 C          11.1055   38.7625   30.7306 C.ar    1  UNL1        0.0995
     21 N          14.7222   37.4433   29.0316 N.pl3   1  UNL1        0.0597
     22 O          14.9595   36.1513   28.9390 O.2     1  UNL1       -0.1260
     23 O          15.6027   38.3092   28.5738 O.2     1  UNL1       -0.1260
@<TRIPOS>BOND
     1    15    20   ar
     2    15    16   ar
     3    16    17   ar
     4    17    18   ar
     5    17    21    1
     6    18    19   ar
     7    18    14    1
     8    19    20   ar
     9    14     1    1
    10     1     5   ar
    11     1     2   ar
    12     2     3   ar
    13     3     4   ar
    14     4     5   ar
    15     4     6    1
    16     6     8    1
    17     8    13    1
    18     8     9    1
    19     9    10    1
    20    10    11    1
    21    11    12    1
    22    12    13    1
    23    21    22    2
    24    21    23    2
    25     6     7    1
@<TRIPOS>MOLECULE
ZINC12868877
 24 25 0 0 0
SMALL
GASTEIGER

@<TRIPOS>ATOM
      1 C          24.9644   35.8878   32.1129 C.2     1  UNL1        0.2265
      2 O          24.8517   35.0447   31.2483 O.2     1  UNL1       -0.2748
      3 N          24.6843   37.1770   31.8375 N.am    1  UNL1       -0.2784
      4 H          24.7757   37.8614   32.5393 H       1  UNL1        0.1553
      5 C          24.2668   37.5398   30.5645 C.ar    1  UNL1        0.0898
      6 C          25.0422   37.8847   29.4698 C.ar    1  UNL1        0.0843
      7 C          24.3553   38.2223   28.2312 C.ar    1  UNL1       -0.0088
      8 C          23.0065   38.1757   28.2975 C.ar    1  UNL1        0.0052
      9 S          22.6496   37.6788   29.9607 S.2     1  UNL1       -0.0762
     10 C          22.0256   38.4893   27.2116 C.3     1  UNL1        0.0327
     11 C          22.4350   37.7506   25.9301 C.3     1  UNL1        0.0052
     12 C          23.3785   38.6488   25.1364 C.3     1  UNL1        0.0007
     13 C          24.2246   39.4935   26.0869 C.3     1  UNL1        0.0047
     14 C          25.1007   38.5992   26.9570 C.3     1  UNL1        0.0273
     15 C          26.4716   37.9046   29.5524 C.1     1  UNL1        0.1019
     16 N          27.6057   37.9204   29.6178 N.1     1  UNL1       -0.1908
     17 C          25.4177   35.4938   33.4951 C.3     1  UNL1        0.0857
     18 C          27.4328   35.3217   34.9622 C.3     1  UNL1        0.0009
     19 C          26.9419   35.3619   33.5136 C.3     1  UNL1        0.0138
     20 C          27.3509   34.0715   32.8006 C.3     1  UNL1        0.0009
     21 C          27.5662   36.5607   32.7968 C.3     1  UNL1        0.0422
     22 C          28.8374   36.9606   33.5004 C.2     1  UNL1        0.0503
     23 O          28.8775   37.9852   34.1395 O.co2   1  UNL1       -0.5492
     24 O          29.9252   36.1785   33.4173 O.co2   1  UNL1       -0.5492
@<TRIPOS>UNITY_ATOM_ATTR
24 1
charge -1
@<TRIPOS>BOND
     1    18    19    1
     2    19    20    1
     3    19    17    1
     4    19    21    1
     5    17     1    1
     6     1     2    2
     7     1     3   am
     8     3     5    1
     9     5     9   ar
    10     5     6   ar
    11     6     7   ar
    12     6    15    1
    13     7    14    1
    14     7     8   ar
    15     8     9   ar
    16     8    10    1
    17    10    11    1
    18    11    12    1
    19    12    13    1
    20    13    14    1
    21    15    16    3
    22    21    22    1
    23    22    23   ar
    24    22    24   ar
    25     3     4    1
@<TRIPOS>MOLECULE
ZINC26775825
 24 26 0 0 0
SMALL
GASTEIGER

@<TRIPOS>ATOM
      1 C          11.5598   37.4610   26.8233 C.ar    1  UNL1        0.0481
      2 C          10.8942   36.4877   26.0882 C.ar    1  UNL1        0.0146
      3 C           9.9695   36.8588   25.1323 C.ar    1  UNL1        0.0010
      4 C           9.7132   38.1978   24.8988 C.ar    1  UNL1       -0.0025
      5 C          10.3780   39.1691   25.6245 C.ar    1  UNL1       -0.0011
      6 C          11.3004   38.8048   26.5858 C.ar    1  UNL1        0.0120
      7 N          12.4922   37.0890   27.7950 N.pl3   1  UNL1       -0.3112
      8 H          13.1755   36.4111   27.5877 H       1  UNL1        0.1523
      9 C          11.2028   38.5986   30.8878 C.ar    1  UNL1        0.0014
     10 C          12.3815   38.8523   31.5658 C.ar    1  UNL1        0.0018
     11 C          13.5962   38.5187   30.9958 C.ar    1  UNL1        0.0253
     12 C          13.6365   37.9306   29.7467 C.ar    1  UNL1        0.1561
     13 C          12.4549   37.6788   29.0610 C.ar    1  UNL1        0.0710
     14 C          11.2357   38.0110   29.6388 C.ar    1  UNL1        0.0163
     15 N          14.9373   37.5747   29.1368 N.pl3   1  UNL1        0.0589
     16 O          15.1788   36.4157   28.8500 O.2     1  UNL1       -0.1261
     17 O          15.7664   38.4406   28.9216 O.2     1  UNL1       -0.1261
     18 C          10.0962   40.6267   25.3658 C.3     1  UNL1        0.1202
     19 N          10.7294   41.0308   24.1080 N.am    1  UNL1       -0.2754
     20 C          11.9999   40.4910   23.6096 C.3     1  UNL1        0.0942
     21 C          12.4759   41.4877   22.5296 C.3     1  UNL1        0.0311
     22 C          11.1404   42.1196   22.0734 C.3     1  UNL1        0.0870
     23 C          10.2186   41.9395   23.2594 C.2     1  UNL1        0.2259
     24 O           9.1723   42.5308   23.4222 O.2     1  UNL1       -0.2749
@<TRIPOS>BOND
     1     9    14   ar
     2     9    10   ar
     3    10    11   ar
     4    11    12   ar
     5    12    13   ar
     6    12    15    1
     7    13    14   ar
     8    13     7    1
     9     7     1    1
    10     1     6   ar
    11     1     2   ar
    12     2     3   ar
    13     3     4   ar
    14     4     5   ar
    15     5     6   ar
    16     5    18    1
    17    18    19    1
    18    19    23   am
    19    19    20    1
    20    20    21    1
    21    21    22    1
    22    22    23    1
    23    23    24    2
    24    15    16    2
    25    15    17    2
    26     7     8    1
@<TRIPOS>MOLECULE
ZINC06791052
 24 26 0 0 0
SMALL
GASTEIGER

@<TRIPOS>ATOM
      1 N          19.5866   39.1364   29.3749 N.pl3   1  UNL1       -0.3097
      2 H          18.7919   39.4815   28.9074 H       1  UNL1        0.1523
      3 C          18.4443   38.9449   31.5019 C.ar    1  UNL1        0.0890
      4 C          18.4983   38.9301   32.8983 C.ar    1  UNL1        0.0077
      5 C          19.7045   39.1025   33.5413 C.ar    1  UNL1        0.0003
      6 C          20.8679   39.2851   32.8104 C.ar    1  UNL1        0.0013
      7 C          20.8320   39.2970   31.4310 C.ar    1  UNL1        0.0148
      8 C          19.6252   39.1248   30.7646 C.ar    1  UNL1        0.0546
      9 C          17.1566   38.7677   30.8077 C.2     1  UNL1        0.3425
     10 O          17.1310   38.3110   29.6819 O.2     1  UNL1       -0.2448
     11 C          14.9511   39.6552   30.5861 C.3     1  UNL1        0.2560
     12 O          16.0073   39.1122   31.4214 O.3     1  UNL1       -0.4413
     13 C          20.6538   38.6678   28.6565 C.2     1  UNL1        0.0942
     14 C          21.8518   39.2332   28.2115 C.2     1  UNL1        0.0589
     15 C          22.2580   37.9758   27.5742 C.2     1  UNL1        0.2367
     16 O          23.2185   37.5951   26.9327 O.2     1  UNL1       -0.2831
     17 C          20.9912   37.3705   28.0494 C.2     1  UNL1        0.2476
     18 O          20.4606   36.2801   27.9688 O.2     1  UNL1       -0.2818
     19 C          22.4638   40.5697   28.3302 C.ar    1  UNL1        0.0045
     20 C          23.8470   40.7231   28.1982 C.ar    1  UNL1        0.0001
     21 C          24.4126   41.9751   28.3160 C.ar    1  UNL1        0.0000
     22 C          23.6132   43.0799   28.5531 C.ar    1  UNL1        0.0000
     23 C          22.2425   42.9366   28.6799 C.ar    1  UNL1        0.0000
     24 C          21.6630   41.6901   28.5702 C.ar    1  UNL1        0.0001
@<TRIPOS>BOND
     1    11    12    1
     2    12     9    1
     3     9    10    2
     4     9     3    1
     5     3     8   ar
     6     3     4   ar
     7     4     5   ar
     8     5     6   ar
     9     6     7   ar
    10     7     8   ar
    11     8     1    1
    12     1    13    1
    13    13    17    1
    14    13    14    2
    15    14    15    1
    16    14    19    1
    17    15    16    2
    18    15    17    1
    19    17    18    2
    20    19    24   ar
    21    19    20   ar
    22    20    21   ar
    23    21    22   ar
    24    22    23   ar
    25    23    24   ar
    26     1     2    1
@<TRIPOS>MOLECULE
ZINC16399873
 22 23 0 0 0
SMALL
GASTEIGER

@<TRIPOS>ATOM
      1 O          18.8988   38.0881   30.7186 O.3     1  UNL1       -0.4295
      2 C          19.9584   38.2986   29.9149 C.2     1  UNL1        0.4057
      3 O          20.4919   39.3900   29.8862 O.2     1  UNL1       -0.2261
      4 N          20.4273   37.2988   29.1421 N.am    1  UNL1       -0.2499
      5 H          20.0392   36.3970   29.2150 H       1  UNL1        0.1582
      6 C          21.4657   37.5428   28.2363 C.ar    1  UNL1        0.0540
      7 C          21.1873   37.7001   26.8846 C.ar    1  UNL1        0.0148
      8 C          22.2132   37.9456   25.9933 C.ar    1  UNL1        0.0021
      9 C          23.5183   38.0247   26.4433 C.ar    1  UNL1        0.0115
     10 C          23.8002   37.8632   27.7884 C.ar    1  UNL1        0.0589
     11 C          22.7767   37.6221   28.6859 C.ar    1  UNL1        0.0262
     12 CL         25.4401   37.9628   28.3491 Cl      1  UNL1       -0.0822
     13 C          18.9605   38.6565   32.0532 C.3     1  UNL1        0.2368
     14 C          16.4993   41.1144   33.5213 C.ar    1  UNL1        0.0015
     15 C          17.6740   40.4357   33.2548 C.ar    1  UNL1       -0.0006
     16 C          17.6800   39.3960   32.3440 C.ar    1  UNL1        0.0230
     17 C          16.5113   39.0344   31.7001 C.ar    1  UNL1        0.0234
     18 C          15.3368   39.7121   31.9675 C.ar    1  UNL1        0.1427
     19 C          15.3318   40.7554   32.8746 C.ar    1  UNL1        0.0241
     20 N          14.0854   39.3248   31.2781 N.pl3   1  UNL1        0.0577
     21 O          14.1314   38.6417   30.2708 O.2     1  UNL1       -0.1261
     22 O          13.0095   39.6853   31.7210 O.2     1  UNL1       -0.1261
@<TRIPOS>BOND
     1    14    19   ar
     2    14    15   ar
     3    15    16   ar
     4    16    17   ar
     5    16    13    1
     6    17    18   ar
     7    18    19   ar
     8    18    20    1
     9    20    21    2
    10    20    22    2
    11    13     1    1
    12     1     2    1
    13     2     3    2
    14     2     4   am
    15     4     6    1
    16     6    11   ar
    17     6     7   ar
    18     7     8   ar
    19     8     9   ar
    20     9    10   ar
    21    10    11   ar
    22    10    12    1
    23     4     5    1
@<TRIPOS>MOLECULE
ZINC15324817
 24 26 0 0 0
SMALL
GASTEIGER

@<TRIPOS>ATOM
      1 N          20.7025   38.3540   30.1629 N.am    1  UNL1       -0.2628
      2 C          21.1756   39.0808   29.1312 C.2     1  UNL1        0.2271
      3 O          20.4622   39.8964   28.5864 O.2     1  UNL1       -0.2747
      4 H          21.2816   37.6918   30.6050 H       1  UNL1        0.1568
      5 C          22.6037   38.8780   28.6501 C.3     1  UNL1        0.0777
      6 C          23.1667   40.2378   28.2693 C.3     1  UNL1        0.0164
      7 C          24.6735   40.2125   28.0266 C.3     1  UNL1        0.0581
      8 C          25.0209   39.3628   26.8085 C.3     1  UNL1        0.0073
      9 C          24.7585   37.8819   27.0028 C.3     1  UNL1        0.0009
     10 C          25.2508   37.3101   28.3184 C.3     1  UNL1        0.0073
     11 C          24.8840   38.1671   29.5267 C.3     1  UNL1        0.0581
     12 C          23.3759   38.1785   29.7567 C.3     1  UNL1        0.0164
     13 C          25.3324   39.5897   29.2442 C.2     1  UNL1        0.1498
     14 O          26.1389   40.1719   29.9249 O.2     1  UNL1       -0.2961
     15 C          17.0716   38.9801   31.7574 C.ar    1  UNL1        0.1119
     16 N          17.1403   38.6020   30.4965 N.ar    1  UNL1       -0.1440
     17 N          18.2577   38.3977   29.9461 N.ar    1  UNL1       -0.1256
     18 C          19.3963   38.5395   30.6029 C.ar    1  UNL1        0.1878
     19 S          18.8124   39.0291   32.1665 S.2     1  UNL1       -0.0347
     20 C          15.8681   39.2846   32.6118 C.3     1  UNL1        0.0484
     21 C          16.0799   41.6170   33.4820 C.3     1  UNL1        0.0004
     22 C          16.2946   40.1377   33.8081 C.3     1  UNL1        0.0065
     23 C          14.8344   40.0495   31.7825 C.3     1  UNL1        0.0065
     24 C          13.5427   39.2337   31.6994 C.3     1  UNL1        0.0004
@<TRIPOS>BOND
     1    21    22    1
     2    22    20    1
     3    20    23    1
     4    20    15    1
     5    23    24    1
     6    15    19   ar
     7    15    16   ar
     8    16    17   ar
     9    17    18   ar
    10    18    19   ar
    11    18     1    1
    12     1     2   am
    13     2     3    2
    14     2     5    1
    15     5    12    1
    16     5     6    1
    17     6     7    1
    18     7    13    1
    19     7     8    1
    20     8     9    1
    21     9    10    1
    22    10    11    1
    23    11    12    1
    24    11    13    1
    25    13    14    2
    26     1     4    1
@<TRIPOS>MOLECULE
ZINC04561497
 23 24 0 0 0
SMALL
GASTEIGER

@<TRIPOS>ATOM
      1 C          21.9773   38.8011   29.4180 C.2     1  UNL1       -0.0344
      2 S          23.0407   37.4725   29.6045 S.2     1  UNL1       -0.0617
      3 C          19.8696   38.5702   30.3945 C.2     1  UNL1        0.2507
      4 O          19.5422   37.8068   29.5072 O.2     1  UNL1       -0.2698
      5 N          21.1050   39.1088   30.3982 N.am    1  UNL1       -0.2955
      6 H          21.3702   39.7271   31.1170 H       1  UNL1        0.1538
      7 C          18.4761   39.4749   33.7606 C.ar    1  UNL1        0.0003
      8 C          17.1208   39.5386   33.4842 C.ar    1  UNL1        0.0023
      9 C          16.6561   39.2890   32.2069 C.ar    1  UNL1        0.0298
     10 C          17.5441   38.9730   31.1946 C.ar    1  UNL1        0.1445
     11 C          18.9142   38.9072   31.4680 C.ar    1  UNL1        0.0810
     12 C          19.3733   39.1564   32.7637 C.ar    1  UNL1        0.0068
     13 F          17.0896   38.7282   29.9462 F       1  UNL1       -0.2040
     14 N          22.0162   39.5427   28.2932 N.am    1  UNL1       -0.6271
     15 C          22.5640   40.8294   28.3224 C.ar    1  UNL1       -0.1234
     16 C          23.9223   41.0128   28.0981 C.ar    1  UNL1       -0.0229
     17 C          24.4589   42.2851   28.1221 C.ar    1  UNL1        0.0222
     18 C          23.6475   43.3747   28.3804 C.ar    1  UNL1        0.1428
     19 C          22.2957   43.1949   28.6097 C.ar    1  UNL1        0.0222
     20 C          21.7517   41.9257   28.5815 C.ar    1  UNL1       -0.0229
     21 N          24.2271   44.7363   28.4108 N.pl3   1  UNL1        0.0577
     22 O          24.0303   45.5028   27.4848 O.2     1  UNL1       -0.1261
     23 O          24.9007   45.0904   29.3618 O.2     1  UNL1       -0.1261
@<TRIPOS>UNITY_ATOM_ATTR
14 1
charge -1
@<TRIPOS>BOND
     1     7    12   ar
     2     7     8   ar
     3     8     9   ar
     4     9    10   ar
     5    10    11   ar
     6    10    13    1
     7    11    12   ar
     8    11     3    1
     9     3     4    2
    10     3     5   am
    11     5     1    1
    12     1     2    2
    13     1    14    1
    14    14    15    1
    15    15    20   ar
    16    15    16   ar
    17    16    17   ar
    18    17    18   ar
    19    18    19   ar
    20    18    21    1
    21    19    20   ar
    22    21    22    2
    23    21    23    2
    24     5     6    1
@<TRIPOS>MOLECULE
ZINC13954107
 25 26 0 0 0
SMALL
GASTEIGER

@<TRIPOS>ATOM
      1 C          20.8776   37.6113   28.7922 C.2     1  UNL1        0.2645
      2 O          20.1932   36.8061   28.1908 O.2     1  UNL1       -0.2684
      3 N          20.2939   38.5421   29.5728 N.am    1  UNL1       -0.2027
      4 H          20.8481   39.1941   30.0596 H       1  UNL1        0.1776
      5 C          25.1078   37.4903   28.4324 C.ar    1  UNL1       -0.0225
      6 C          24.5114   37.2014   29.6471 C.ar    1  UNL1       -0.0041
      7 C          23.1380   37.2392   29.7709 C.ar    1  UNL1        0.0042
      8 C          22.3496   37.5694   28.6671 C.ar    1  UNL1        0.0550
      9 C          22.9576   37.8540   27.4430 C.ar    1  UNL1        0.0042
     10 C          24.3323   37.8186   27.3345 C.ar    1  UNL1       -0.0041
     11 C          27.1132   38.7880   27.7665 C.3     1  UNL1        0.0047
     12 C          26.6088   37.4475   28.3049 C.3     1  UNL1        0.0224
     13 C          27.2299   37.1833   29.6779 C.3     1  UNL1        0.0047
     14 N          18.8985   38.5818   29.6915 N.2     1  UNL1       -0.1833
     15 C          18.3511   38.7773   30.8519 C.2     1  UNL1        0.0766
     16 C          19.2167   38.9616   32.0718 C.3     1  UNL1        0.0537
     17 C          16.8822   38.8131   30.9777 C.ar    1  UNL1        0.0152
     18 C          16.0762   38.4428   29.8986 C.ar    1  UNL1        0.0029
     19 C          14.7031   38.4740   30.0251 C.ar    1  UNL1        0.0241
     20 C          14.1236   38.8811   31.2138 C.ar    1  UNL1        0.1429
     21 C          14.9158   39.2544   32.2852 C.ar    1  UNL1        0.0241
     22 C          16.2903   39.2230   32.1748 C.ar    1  UNL1        0.0029
     23 N          12.6492   38.9171   31.3402 N.pl3   1  UNL1        0.0577
     24 O          12.0011   37.8949   31.2041 O.2     1  UNL1       -0.1261
     25 O          12.0841   39.9691   31.5803 O.2     1  UNL1       -0.1261
@<TRIPOS>BOND
     1    11    12    1
     2    12    13    1
     3    12     5    1
     4     5    10   ar
     5     5     6   ar
     6     6     7   ar
     7     7     8   ar
     8     8     9   ar
     9     8     1    1
    10     9    10   ar
    11     1     2    2
    12     1     3   am
    13     3    14    1
    14    14    15    2
    15    15    16    1
    16    15    17    1
    17    17    22   ar
    18    17    18   ar
    19    18    19   ar
    20    19    20   ar
    21    20    21   ar
    22    20    23    1
    23    21    22   ar
    24    23    24    2
    25    23    25    2
    26     3     4    1
@<TRIPOS>MOLECULE
ZINC04697145
 23 25 0 0 0
SMALL
GASTEIGER

@<TRIPOS>ATOM
      1 N          23.8544   38.6777   29.8219 N.pl3   1  UNL1       -0.2196
      2 H          23.9743   39.2542   30.6109 H       1  UNL1        0.1760
      3 C          20.2339   39.3511   32.1581 C.ar    1  UNL1        0.0088
      4 C          21.4178   39.1975   31.5219 C.ar    1  UNL1        0.0071
      5 C          21.4687   38.5590   30.2770 C.ar    1  UNL1        0.0570
      6 C          22.5943   38.2920   29.4390 C.ar    1  UNL1        0.1509
      7 N          22.4041   37.6614   28.2869 N.ar    1  UNL1       -0.2075
      8 C          21.2110   37.2800   27.8833 C.ar    1  UNL1        0.2006
      9 N          20.1290   37.4976   28.6145 N.ar    1  UNL1       -0.2173
     10 C          20.2186   38.1094   29.7691 C.ar    1  UNL1        0.1149
     11 S          19.0725   38.5945   31.0337 S.2     1  UNL1       -0.0722
     12 C          19.5929   38.9267   34.5158 C.3     1  UNL1        0.0056
     13 C          19.9623   40.0008   33.4906 C.3     1  UNL1        0.0330
     14 N          24.8818   38.2848   29.1480 N.2     1  UNL1       -0.1753
     15 C          25.7395   39.1823   28.6534 C.2     1  UNL1        0.1550
     16 C          25.4458   40.5335   28.7252 C.ar    1  UNL1        0.1681
     17 C          26.2694   41.5747   29.3461 C.ar    1  UNL1        0.0442
     18 C          25.5749   42.7547   29.1729 C.ar    1  UNL1        0.0661
     19 C          24.4050   42.4554   28.4918 C.ar    1  UNL1        0.2889
     20 O          24.3460   41.1469   28.2305 O.2     1  UNL1       -0.4312
     21 N          23.3736   43.4444   28.1039 N.pl3   1  UNL1        0.0932
     22 O          23.6734   44.4136   27.2640 O.2     1  UNL1       -0.1230
     23 O          22.1564   43.3549   28.5985 O.2     1  UNL1       -0.1230
@<TRIPOS>BOND
     1    12    13    1
     2    13     3    1
     3     3    11   ar
     4     3     4   ar
     5     4     5   ar
     6     5    10   ar
     7     5     6   ar
     8     6     7   ar
     9     6     1    1
    10     7     8   ar
    11     8     9   ar
    12     9    10   ar
    13    10    11   ar
    14     1    14    1
    15    14    15    2
    16    15    16    1
    17    16    20   ar
    18    16    17   ar
    19    17    18   ar
    20    18    19   ar
    21    19    20   ar
    22    19    21    1
    23    21    22    2
    24    21    23    2
    25     1     2    1
@<TRIPOS>MOLECULE
ZINC27836758
 21 22 0 0 0
SMALL
GASTEIGER

@<TRIPOS>ATOM
      1 N          21.0039   37.9833   29.8815 N.pl3   1  UNL1       -0.2198
      2 H          20.3188   37.4009   29.4808 H       1  UNL1        0.1760
      3 C          22.2959   37.9696   29.3904 C.ar    1  UNL1        0.1483
      4 C          22.5166   37.9674   28.0012 C.ar    1  UNL1        0.0470
      5 C          23.8343   37.9533   27.5284 C.ar    1  UNL1        0.0056
      6 C          24.8640   37.9422   28.4523 C.ar    1  UNL1        0.0208
      7 C          24.5675   37.9453   29.8041 C.ar    1  UNL1        0.1004
      8 N          23.3201   37.9641   30.2303 N.ar    1  UNL1       -0.2277
      9 C          21.3825   37.9791   27.0615 C.2     1  UNL1        0.0756
     10 O          20.4378   38.7178   27.2585 O.co2   1  UNL1       -0.5445
     11 O          21.3923   37.1706   25.9832 O.co2   1  UNL1       -0.5445
     12 C          19.4834   38.7694   31.4740 C.2     1  UNL1        0.1184
     13 N          20.6694   38.8260   30.9494 N.2     1  UNL1       -0.1785
     14 C          19.7981   41.0212   34.4599 C.ar    1  UNL1        0.0010
     15 C          20.1342   40.1963   33.4065 C.ar    1  UNL1        0.0025
     16 C          19.1313   39.6563   32.5981 C.ar    1  UNL1        0.0321
     17 C          17.7925   39.9644   32.8571 C.ar    1  UNL1        0.0697
     18 C          17.4710   40.7958   33.9126 C.ar    1  UNL1        0.0682
     19 C          18.4717   41.3231   34.7115 C.ar    1  UNL1        0.0122
     20 CL         15.8097   41.1807   34.2375 Cl      1  UNL1       -0.0814
     21 CL         16.5377   39.3036   31.8559 Cl      1  UNL1       -0.0813
@<TRIPOS>UNITY_ATOM_ATTR
11 1
charge -1
@<TRIPOS>BOND
     1    14    19   ar
     2    14    15   ar
     3    15    16   ar
     4    16    17   ar
     5    16    12    1
     6    17    18   ar
     7    17    21    1
     8    18    19   ar
     9    18    20    1
    10    12    13    2
    11    13     1    1
    12     1     3    1
    13     3     8   ar
    14     3     4   ar
    15     4     5   ar
    16     4     9    1
    17     5     6   ar
    18     6     7   ar
    19     7     8   ar
    20     9    10   ar
    21     9    11   ar
    22     1     2    1
@<TRIPOS>MOLECULE
ZINC03592093
 25 26 0 0 0
SMALL
GASTEIGER

@<TRIPOS>ATOM
      1 N          22.3669   38.5803   29.6787 N.am    1  UNL1       -0.2809
      2 C          21.1987   37.9385   29.4791 C.2     1  UNL1        0.2496
      3 O          21.1897   36.8393   28.9567 O.2     1  UNL1       -0.2698
      4 H          22.3794   39.4451   30.1489 H       1  UNL1        0.1552
      5 C          23.9854   37.1569   31.5362 C.3     1  UNL1        0.0323
      6 C          24.3815   37.3149   30.0908 C.ar    1  UNL1       -0.0087
      7 C          25.5605   36.7603   29.6325 C.ar    1  UNL1       -0.0031
      8 C          25.9244   36.9044   28.3063 C.ar    1  UNL1       -0.0006
      9 C          25.1097   37.6038   27.4345 C.ar    1  UNL1       -0.0031
     10 C          23.9297   38.1607   27.8863 C.ar    1  UNL1       -0.0093
     11 C          23.5611   38.0177   29.2181 C.ar    1  UNL1        0.0425
     12 C          23.0428   38.9229   26.9358 C.3     1  UNL1        0.0236
     13 C          23.8253   40.0926   26.3352 C.3     1  UNL1        0.0047
     14 C          22.5773   37.9917   25.8147 C.3     1  UNL1        0.0047
     15 C          19.9406   38.5636   29.8907 C.2     1  UNL1        0.0581
     16 C          19.3788   38.2345   31.0714 C.2     1  UNL1        0.0063
     17 C          18.1137   38.8630   31.4852 C.ar    1  UNL1        0.0226
     18 C          16.9790   38.7590   30.6743 C.ar    1  UNL1        0.0017
     19 C          15.7978   39.3505   31.0688 C.ar    1  UNL1        0.0001
     20 C          15.7331   40.0459   32.2638 C.ar    1  UNL1        0.0017
     21 C          16.8516   40.1538   33.0714 C.ar    1  UNL1        0.0241
     22 C          18.0389   39.5623   32.6936 C.ar    1  UNL1        0.1428
     23 N          19.2323   39.6728   33.5623 N.pl3   1  UNL1        0.0577
     24 O          20.0220   40.5856   33.3990 O.2     1  UNL1       -0.1261
     25 O          19.4245   38.8511   34.4405 O.2     1  UNL1       -0.1261
@<TRIPOS>BOND
     1     5     6    1
     2     6    11   ar
     3     6     7   ar
     4     7     8   ar
     5     8     9   ar
     6     9    10   ar
     7    10    11   ar
     8    10    12    1
     9    11     1    1
    10     1     2   am
    11     2     3    2
    12     2    15    1
    13    15    16    2
    14    16    17    1
    15    17    22   ar
    16    17    18   ar
    17    18    19   ar
    18    19    20   ar
    19    20    21   ar
    20    21    22   ar
    21    22    23    1
    22    23    24    2
    23    23    25    2
    24    12    13    1
    25    12    14    1
    26     1     4    1
@<TRIPOS>MOLECULE
ZINC02617008
 21 22 0 0 0
SMALL
GASTEIGER

@<TRIPOS>ATOM
      1 C          19.8843   38.9883   30.1200 C.ar    1  UNL1        0.1865
      2 N          20.8283   39.1578   31.0251 N.ar    1  UNL1       -0.1249
      3 N          20.5082   39.1257   32.3627 N.ar    1  UNL1       -0.1331
      4 C          19.2595   38.9156   32.7337 C.ar    1  UNL1        0.1609
      5 S          18.4452   38.7543   31.1521 S.2     1  UNL1       -0.0242
      6 N          19.9836   38.9862   28.7331 N.pl3   1  UNL1       -0.2913
      7 H          19.1912   38.7889   28.1832 H       1  UNL1        0.1541
      8 C          23.7406   42.0671   27.9907 C.3     1  UNL1        0.0311
      9 C          23.0520   40.7499   27.7419 C.ar    1  UNL1       -0.0209
     10 C          23.6325   39.8141   26.9055 C.ar    1  UNL1       -0.0084
     11 C          23.0039   38.6043   26.6740 C.ar    1  UNL1       -0.0209
     12 C          21.7939   38.3263   27.2787 C.ar    1  UNL1        0.0104
     13 C          21.2079   39.2639   28.1201 C.ar    1  UNL1        0.0491
     14 C          21.8395   40.4806   28.3458 C.ar    1  UNL1        0.0104
     15 C          23.6402   37.5878   25.7614 C.3     1  UNL1        0.0311
     16 S          18.5775   38.8206   34.3556 S.3     1  UNL1       -0.0818
     17 C          19.0805   40.3794   35.1351 C.3     1  UNL1        0.0902
     18 C          20.6064   40.4308   35.2346 C.3     1  UNL1        0.0181
     19 C          18.5920   41.5374   34.3036 C.2     1  UNL1        0.0604
     20 O          17.4422   41.5732   33.9340 O.co2   1  UNL1       -0.5483
     21 O          19.4342   42.5291   33.9735 O.co2   1  UNL1       -0.5483
@<TRIPOS>UNITY_ATOM_ATTR
21 1
charge -1
@<TRIPOS>BOND
     1     8     9    1
     2     9    14   ar
     3     9    10   ar
     4    10    11   ar
     5    11    12   ar
     6    11    15    1
     7    12    13   ar
     8    13    14   ar
     9    13     6    1
    10     6     1    1
    11     1     5   ar
    12     1     2   ar
    13     2     3   ar
    14     3     4   ar
    15     4     5   ar
    16     4    16    1
    17    16    17    1
    18    17    18    1
    19    17    19    1
    20    19    20   ar
    21    19    21   ar
    22     6     7    1
@<TRIPOS>MOLECULE
ZINC05372802
 24 26 0 0 0
SMALL
GASTEIGER

@<TRIPOS>ATOM
      1 C          25.0383   39.5844   28.5714 C.2     1  UNL1        0.3114
      2 N          26.0655   39.1041   29.2529 N.am    1  UNL1       -0.1246
      3 C          25.9666   38.0410   30.0215 C.2     1  UNL1        0.4229
      4 O          26.9228   37.6069   30.6456 O.2     1  UNL1       -0.2134
      5 C          24.6376   37.4000   30.0891 C.2     1  UNL1        0.1422
      6 C          24.2322   36.3012   30.7881 C.2     1  UNL1        0.0228
      7 S          23.7078   38.4734   29.0020 S.3     1  UNL1        0.0068
      8 H          26.9358   39.5589   29.1823 H       1  UNL1        0.4494
      9 C          25.1026   35.6984   31.7241 C.ar    1  UNL1        0.0303
     10 C          25.2854   35.9968   33.0709 C.ar    1  UNL1        0.0070
     11 C          26.2036   35.2423   33.7563 C.ar    1  UNL1        0.0075
     12 C          26.8858   34.2670   33.0991 C.ar    1  UNL1        0.0354
     13 S          26.2594   34.3612   31.4854 S.2     1  UNL1       -0.0864
     14 N          25.0023   40.6762   27.7391 N.pl3   1  UNL1       -0.2549
     15 H          25.2823   40.5882   26.7993 H       1  UNL1        0.1582
     16 C          23.7062   44.3627   29.1905 C.ar    1  UNL1        0.0001
     17 C          22.7869   43.4141   28.7706 C.ar    1  UNL1        0.0013
     18 C          23.2130   42.1929   28.2898 C.ar    1  UNL1        0.0148
     19 C          24.5706   41.9062   28.2237 C.ar    1  UNL1        0.0542
     20 C          25.5043   42.8645   28.6481 C.ar    1  UNL1        0.0276
     21 C          25.0566   44.0967   29.1325 C.ar    1  UNL1        0.0024
     22 C          26.9473   42.5734   28.5829 C.2     1  UNL1        0.0741
     23 O          27.6394   43.1170   27.7451 O.co2   1  UNL1       -0.5446
     24 O          27.4993   41.7045   29.4525 O.co2   1  UNL1       -0.5446
@<TRIPOS>UNITY_ATOM_ATTR
2 1
charge 1
24 1
charge -1
@<TRIPOS>BOND
     1    16    21   ar
     2    16    17   ar
     3    17    18   ar
     4    18    19   ar
     5    19    20   ar
     6    19    14    1
     7    20    21   ar
     8    20    22    1
     9    22    23   ar
    10    22    24   ar
    11    14     1    1
    12     1     7    1
    13     1     2    2
    14     2     3   am
    15     3     4    2
    16     3     5    1
    17     5     6    2
    18     5     7    1
    19     6     9    1
    20     9    13   ar
    21     9    10   ar
    22    10    11   ar
    23    11    12   ar
    24    12    13   ar
    25    14    15    1
    26     2     8    1
@<TRIPOS>MOLECULE
ZINC25568634
 23 25 0 0 0
SMALL
GASTEIGER

@<TRIPOS>ATOM
      1 C          24.2947   39.7200   28.0910 C.ar    1  UNL1        0.2214
      2 N          24.0306   39.0600   26.9729 N.ar    1  UNL1       -0.2103
      3 C          23.0355   38.1872   26.9163 C.ar    1  UNL1        0.1287
      4 C          22.2655   37.9661   28.0416 C.ar    1  UNL1        0.1931
      5 C          22.5676   38.6763   29.2053 C.ar    1  UNL1        0.1555
      6 N          23.5771   39.5409   29.1897 N.ar    1  UNL1       -0.1972
      7 N          21.1461   36.9980   28.0148 N.pl3   1  UNL1        0.0620
      8 O          20.3934   36.9639   27.0578 O.2     1  UNL1       -0.1260
      9 O          20.9778   36.2355   28.9495 O.2     1  UNL1       -0.1260
     10 N          25.3432   40.6231   28.1098 N.pl3   1  UNL1       -0.2780
     11 C          26.4511   40.4398   29.0505 C.3     1  UNL1        0.1150
     12 C          22.4629   43.7342   28.8105 C.3     1  UNL1        0.0001
     13 C          23.8012   42.9989   28.7151 C.3     1  UNL1        0.0016
     14 C          24.9359   43.9547   29.0887 C.3     1  UNL1        0.0001
     15 C          26.2743   43.2195   28.9933 C.3     1  UNL1        0.0017
     16 C          26.4799   42.7183   27.5624 C.3     1  UNL1        0.0198
     17 C          25.3452   41.7625   27.1887 C.3     1  UNL1        0.0756
     18 C          24.0068   42.4977   27.2842 C.3     1  UNL1        0.0198
     19 N          21.8224   38.4868   30.3577 N.pl3   1  UNL1       -0.3183
     20 H          22.0937   37.8037   31.0126 H       1  UNL1        0.1482
     21 C          20.6305   39.3030   30.6018 C.3     1  UNL1        0.0705
     22 C          20.1652   39.4582   32.0511 C.3     1  UNL1        0.0212
     23 C          19.3679   38.5839   31.0811 C.3     1  UNL1        0.0212
@<TRIPOS>BOND
     1    12    13    1
     2    13    18    1
     3    13    14    1
     4    14    15    1
     5    15    16    1
     6    16    17    1
     7    17    18    1
     8    17    10    1
     9    10    11    1
    10    10     1    1
    11     1     6   ar
    12     1     2   ar
    13     2     3   ar
    14     3     4   ar
    15     4     5   ar
    16     4     7    1
    17     5     6   ar
    18     5    19    1
    19    19    21    1
    20    21    23    1
    21    21    22    1
    22    22    23    1
    23     7     8    2
    24     7     9    2
    25    19    20    1
@<TRIPOS>MOLECULE
ZINC05499738
 26 29 0 0 0
SMALL
GASTEIGER

@<TRIPOS>ATOM
      1 C          25.6761   40.4493   27.1383 C.3     1  UNL1        0.1704
      2 C          24.6166   39.9982   28.1117 C.3     1  UNL1        0.0413
      3 C          24.2328   38.5174   28.1099 C.3     1  UNL1        0.0289
      4 C          22.7852   38.5430   28.5507 C.ar    1  UNL1       -0.0257
      5 C          22.0394   37.5417   29.1431 C.ar    1  UNL1       -0.0046
      6 C          20.7380   37.8521   29.5153 C.ar    1  UNL1       -0.0003
      7 C          20.2095   39.1086   29.3032 C.ar    1  UNL1       -0.0003
      8 C          20.9471   40.1163   28.6981 C.ar    1  UNL1       -0.0043
      9 C          22.2423   39.8157   28.3119 C.ar    1  UNL1       -0.0223
     10 C          23.2704   40.6350   27.6296 C.3     1  UNL1        0.0479
     11 C          23.4291   42.0737   27.9940 C.ar    1  UNL1       -0.0036
     12 C          22.4732   42.8120   28.6381 C.ar    1  UNL1       -0.0026
     13 C          22.7425   44.1220   29.0011 C.ar    1  UNL1        0.0015
     14 C          23.9766   44.6734   28.7080 C.ar    1  UNL1        0.0253
     15 C          24.9362   43.9373   28.0456 C.ar    1  UNL1        0.1556
     16 C          24.6761   42.6244   27.6624 C.ar    1  UNL1        0.0639
     17 N          25.6358   41.9031   26.9670 N.pl3   1  UNL1       -0.3243
     18 H          26.2748   42.3582   26.3722 H       1  UNL1        0.1473
     19 N          26.2502   44.5462   27.7408 N.pl3   1  UNL1        0.0589
     20 O          26.4238   45.1216   26.6814 O.2     1  UNL1       -0.1261
     21 O          27.1581   44.4719   28.5494 O.2     1  UNL1       -0.1261
     22 C          25.4410   39.7857   25.8059 C.2     1  UNL1        0.3350
     23 O          25.9312   38.7059   25.5739 O.2     1  UNL1       -0.2483
     24 O          24.6871   40.3941   24.8768 O.3     1  UNL1       -0.4474
     25 C          23.5156   40.1569   22.7551 C.3     1  UNL1        0.0513
     26 C          23.7434   39.5657   24.1479 C.3     1  UNL1        0.2086
@<TRIPOS>BOND
     1    25    26    1
     2    26    24    1
     3    24    22    1
     4    22    23    2
     5    22     1    1
     6     1    17    1
     7     1     2    1
     8     2    10    1
     9     2     3    1
    10     3     4    1
    11     4     9   ar
    12     4     5   ar
    13     5     6   ar
    14     6     7   ar
    15     7     8   ar
    16     8     9   ar
    17     9    10    1
    18    10    11    1
    19    11    16   ar
    20    11    12   ar
    21    12    13   ar
    22    13    14   ar
    23    14    15   ar
    24    15    16   ar
    25    15    19    1
    26    16    17    1
    27    19    20    2
    28    19    21    2
    29    17    18    1
@<TRIPOS>MOLECULE
ZINC06184721
 24 25 0 0 0
SMALL
GASTEIGER

@<TRIPOS>ATOM
      1 C          13.2788   37.8412   29.3076 C.ar    1  UNL1        0.0874
      2 C          14.6428   37.8052   29.0417 C.ar    1  UNL1        0.0177
      3 C          15.5332   38.3702   29.9327 C.ar    1  UNL1        0.0053
      4 C          15.0696   38.9715   31.0890 C.ar    1  UNL1        0.0732
      5 C          13.7134   39.0095   31.3569 C.ar    1  UNL1        0.0292
      6 C          12.8163   38.4507   30.4679 C.ar    1  UNL1        0.1575
      7 C          16.0448   39.5869   32.0592 C.3     1  UNL1        0.4186
      8 F          15.8405   40.9699   32.1117 F       1  UNL1       -0.1659
      9 F          15.8471   39.0378   33.3306 F       1  UNL1       -0.1659
     10 F          17.3521   39.3243   31.6360 F       1  UNL1       -0.1659
     11 N          11.3637   38.4970   30.7527 N.pl3   1  UNL1        0.0589
     12 O          10.8250   37.5655   31.3232 O.2     1  UNL1       -0.1261
     13 O          10.7078   39.4667   30.4165 O.2     1  UNL1       -0.1261
     14 N          12.3760   37.2718   28.4094 N.pl3   1  UNL1       -0.2343
     15 H          11.7998   36.5268   28.6962 H       1  UNL1        0.1745
     16 C          11.1329   38.0621   26.5946 C.2     1  UNL1        0.1203
     17 N          12.2893   37.7601   27.0991 N.2     1  UNL1       -0.1796
     18 C          10.5352   36.3307   24.0061 C.3     1  UNL1        0.0540
     19 C          10.7761   37.8175   24.0540 C.ar    1  UNL1        0.0820
     20 C          11.0414   38.5767   25.2139 C.ar    1  UNL1        0.0546
     21 C          11.2050   39.8861   24.8177 C.ar    1  UNL1        0.0979
     22 N          11.0419   39.9256   23.4796 N.ar    1  UNL1       -0.2476
     23 N          10.7729   38.6278   23.0299 N.ar    1  UNL1       -0.1735
     24 C          11.1306   41.1229   22.6399 C.3     1  UNL1        0.1537
@<TRIPOS>BOND
     1    18    19    1
     2    19    23   ar
     3    19    20   ar
     4    20    21   ar
     5    20    16    1
     6    21    22   ar
     7    22    23   ar
     8    22    24    1
     9    16    17    2
    10    17    14    1
    11    14     1    1
    12     1     6   ar
    13     1     2   ar
    14     2     3   ar
    15     3     4   ar
    16     4     5   ar
    17     4     7    1
    18     5     6   ar
    19     6    11    1
    20    11    12    2
    21    11    13    2
    22     7     8    1
    23     7     9    1
    24     7    10    1
    25    14    15    1
@<TRIPOS>MOLECULE
ZINC24045847
 24 26 0 0 0
SMALL
GASTEIGER

@<TRIPOS>ATOM
      1 C          12.9043   36.8703   27.5557 C.ar    1  UNL1        0.2151
      2 N          13.0830   35.7799   26.8414 N.ar    1  UNL1       -0.1011
      3 N          14.1062   35.1286   27.2627 N.ar    1  UNL1       -0.0218
      4 N          14.6494   35.7403   28.2588 N.ar    1  UNL1       -0.0382
      5 N          13.8881   36.8995   28.4894 N.ar    1  UNL1       -0.1862
      6 C          14.1003   37.8768   29.4740 C.ar    1  UNL1        0.0868
      7 C          15.2418   38.6659   29.4343 C.ar    1  UNL1        0.0224
      8 C          15.4479   39.6303   30.4007 C.ar    1  UNL1        0.0382
      9 C          14.5193   39.8041   31.4168 C.ar    1  UNL1        0.1338
     10 C          13.3811   39.0120   31.4598 C.ar    1  UNL1        0.0382
     11 C          13.1717   38.0507   30.4911 C.ar    1  UNL1        0.0224
     12 O          14.7250   40.7505   32.3708 O.3     1  UNL1       -0.5055
     13 H          15.4937   41.2855   32.3419 H       1  UNL1        0.2922
     14 S          11.6326   38.0699   27.3362 S.3     1  UNL1       -0.0638
     15 C          10.8046   37.3870   25.8789 C.3     1  UNL1        0.1528
     16 C          10.9355   40.1214   23.5561 C.ar    1  UNL1        0.1797
     17 N          10.7545   39.6668   24.8089 N.ar    1  UNL1       -0.1942
     18 C          10.9070   38.3663   24.7379 C.ar    1  UNL1        0.2477
     19 O          11.1647   38.0747   23.4595 O.2     1  UNL1       -0.3364
     20 N          11.1766   39.0925   22.7999 N.ar    1  UNL1       -0.0606
     21 C          10.7212   41.6149   21.5882 C.3     1  UNL1        0.0077
     22 C          10.8658   41.5593   23.1103 C.3     1  UNL1        0.0557
     23 C           9.6593   42.2375   23.7623 C.3     1  UNL1        0.0077
     24 C          12.1462   42.2853   23.5278 C.3     1  UNL1        0.0077
@<TRIPOS>BOND
     1    21    22    1
     2    22    23    1
     3    22    24    1
     4    22    16    1
     5    16    20   ar
     6    16    17   ar
     7    17    18   ar
     8    18    19   ar
     9    18    15    1
    10    19    20   ar
    11    15    14    1
    12    14     1    1
    13     1     5   ar
    14     1     2   ar
    15     2     3   ar
    16     3     4   ar
    17     4     5   ar
    18     5     6    1
    19     6    11   ar
    20     6     7   ar
    21     7     8   ar
    22     8     9   ar
    23     9    10   ar
    24     9    12    1
    25    10    11   ar
    26    12    13    1
@<TRIPOS>MOLECULE
ZINC04706665
 23 24 0 0 0
SMALL
GASTEIGER

@<TRIPOS>ATOM
      1 C          14.5167   37.1259   28.7983 C.2     1  UNL1        0.0652
      2 C          13.5329   36.5945   28.0378 C.2     1  UNL1        0.0579
      3 N          14.3781   38.3836   29.3130 N.pl3   1  UNL1       -0.3115
      4 H          13.7411   39.0145   28.9063 H       1  UNL1        0.1523
      5 C          14.5158   39.2755   31.5523 C.ar    1  UNL1        0.0163
      6 C          15.2719   39.6552   32.6436 C.ar    1  UNL1        0.0253
      7 C          16.6501   39.5484   32.6030 C.ar    1  UNL1        0.1430
      8 C          17.2756   39.0560   31.4722 C.ar    1  UNL1        0.0253
      9 C          16.5252   38.6687   30.3794 C.ar    1  UNL1        0.0163
     10 C          15.1405   38.7746   30.4170 C.ar    1  UNL1        0.0484
     11 N          17.4576   39.9626   33.7723 N.pl3   1  UNL1        0.0577
     12 O          17.2181   41.0157   34.3356 O.2     1  UNL1       -0.1261
     13 O          18.3617   39.2505   34.1712 O.2     1  UNL1       -0.1261
     14 C          12.2939   37.2618   27.9186 C.2     1  UNL1        0.1969
     15 O          11.7100   37.6450   28.9166 O.2     1  UNL1       -0.2865
     16 C          11.7052   37.4954   26.5814 C.ar    1  UNL1        0.0399
     17 C          10.8518   36.5462   26.0160 C.ar    1  UNL1        0.0041
     18 C          10.3103   36.7662   24.7671 C.ar    1  UNL1        0.0123
     19 C          10.6023   37.9315   24.0779 C.ar    1  UNL1        0.0682
     20 C          11.4439   38.8807   24.6363 C.ar    1  UNL1        0.0683
     21 C          11.9961   38.6683   25.8834 C.ar    1  UNL1        0.0154
     22 CL         11.8037   40.3391   23.7660 Cl      1  UNL1       -0.0814
     23 CL          9.9110   38.2046   22.5090 Cl      1  UNL1       -0.0814
@<TRIPOS>BOND
     1     5    10   ar
     2     5     6   ar
     3     6     7   ar
     4     7     8   ar
     5     7    11    1
     6     8     9   ar
     7     9    10   ar
     8    10     3    1
     9     3     1    1
    10     1     2    2
    11     2    14    1
    12    14    15    2
    13    14    16    1
    14    16    21   ar
    15    16    17   ar
    16    17    18   ar
    17    18    19   ar
    18    19    20   ar
    19    19    23    1
    20    20    21   ar
    21    20    22    1
    22    11    12    2
    23    11    13    2
    24     3     4    1
@<TRIPOS>MOLECULE
ZINC26883942
 24 25 0 0 0
SMALL
GASTEIGER

@<TRIPOS>ATOM
      1 C          20.0694   38.3682   29.5162 C.2     1  UNL1        0.2887
      2 O          20.0696   39.5707   29.3489 O.2     1  UNL1       -0.2663
      3 N          19.3114   37.8233   30.4882 N.am    1  UNL1       -0.2777
      4 H          19.3599   36.8562   30.6664 H       1  UNL1        0.1553
      5 C          18.4564   38.6310   31.2436 C.ar    1  UNL1        0.0509
      6 C          17.1043   38.7006   30.9250 C.ar    1  UNL1        0.0155
      7 C          16.2532   39.4926   31.6711 C.ar    1  UNL1        0.0129
      8 C          16.7416   40.2304   32.7327 C.ar    1  UNL1        0.0640
      9 C          18.0997   40.1718   33.0573 C.ar    1  UNL1        0.0874
     10 C          18.9573   39.3666   32.3060 C.ar    1  UNL1        0.0220
     11 CL         15.6686   41.2290   33.6627 Cl      1  UNL1       -0.0820
     12 C          18.6253   40.9583   34.1911 C.2     1  UNL1        0.3422
     13 O          18.5490   42.1706   34.1765 O.2     1  UNL1       -0.2449
     14 O          19.1893   40.3315   35.2418 O.3     1  UNL1       -0.4413
     15 C          20.6400   40.3211   35.3022 C.3     1  UNL1        0.2560
     16 C          20.9084   37.4939   28.6460 C.2     1  UNL1        0.2487
     17 O          20.3817   36.6810   27.9146 O.2     1  UNL1       -0.2817
     18 C          26.6393   37.9612   28.7748 C.3     1  UNL1        0.0310
     19 C          25.1378   37.8384   28.7410 C.ar    1  UNL1       -0.0218
     20 C          24.4554   38.0589   27.5567 C.ar    1  UNL1       -0.0042
     21 C          23.0818   37.9490   27.5177 C.ar    1  UNL1        0.0030
     22 C          22.3774   37.6131   28.6789 C.ar    1  UNL1        0.0436
     23 C          23.0739   37.3965   29.8727 C.ar    1  UNL1        0.0030
     24 C          24.4480   37.5051   29.8942 C.ar    1  UNL1       -0.0042
@<TRIPOS>BOND
     1    18    19    1
     2    19    24   ar
     3    19    20   ar
     4    20    21   ar
     5    21    22   ar
     6    22    23   ar
     7    22    16    1
     8    23    24   ar
     9    16    17    2
    10    16     1    1
    11     1     2    2
    12     1     3   am
    13     3     5    1
    14     5    10   ar
    15     5     6   ar
    16     6     7   ar
    17     7     8   ar
    18     8     9   ar
    19     8    11    1
    20     9    10   ar
    21     9    12    1
    22    12    13    2
    23    12    14    1
    24    14    15    1
    25     3     4    1
@<TRIPOS>MOLECULE
ZINC25504496
 25 27 0 0 0
SMALL
GASTEIGER

@<TRIPOS>ATOM
      1 N          10.7213   37.9761   26.2441 N.pl3   1  UNL1       -0.3300
      2 H          10.5444   37.0381   26.0029 H       1  UNL1        0.1469
      3 C          10.6195   38.9739   25.2791 C.ar    1  UNL1        0.0674
      4 C          10.4358   40.2983   25.6663 C.ar    1  UNL1        0.0167
      5 C          10.3405   41.2882   24.7149 C.ar    1  UNL1        0.0116
      6 C          10.4231   40.9616   23.3578 C.ar    1  UNL1        0.0702
      7 C          10.6024   39.6300   22.9722 C.ar    1  UNL1        0.0356
      8 C          10.6969   38.6448   23.9291 C.ar    1  UNL1        0.1565
      9 N          10.8868   37.2345   23.5220 N.pl3   1  UNL1        0.0589
     10 O          11.3356   36.9739   22.4200 O.2     1  UNL1       -0.1261
     11 O          10.5942   36.3345   24.2887 O.2     1  UNL1       -0.1261
     12 C          10.3248   41.9890   22.3651 C.1     1  UNL1        0.1005
     13 N          10.2469   42.8041   21.5776 N.1     1  UNL1       -0.1908
     14 C          11.0916   38.3215   27.6187 C.3     1  UNL1        0.1070
     15 C          12.4939   36.2761   27.3147 C.3     1  UNL1        0.0232
     16 C          12.4240   37.6568   27.9703 C.3     1  UNL1        0.0923
     17 N          12.5295   37.5123   29.4284 N.pl3   1  UNL1       -0.3073
     18 C          11.4048   38.1884   30.1108 C.3     1  UNL1        0.0955
     19 C          12.0398   38.6354   31.4475 C.3     1  UNL1        0.0490
     20 C          13.5107   38.7492   31.0997 C.ar    1  UNL1       -0.0071
     21 C          13.7214   38.0733   29.9035 C.ar    1  UNL1        0.0438
     22 C          15.0048   38.0397   29.3612 C.ar    1  UNL1        0.0142
     23 C          16.0489   38.6653   30.0104 C.ar    1  UNL1        0.0012
     24 C          15.8299   39.3304   31.2026 C.ar    1  UNL1       -0.0002
     25 C          14.5582   39.3707   31.7458 C.ar    1  UNL1       -0.0030
@<TRIPOS>BOND
     1    15    16    1
     2    16    14    1
     3    16    17    1
     4    14     1    1
     5     1     3    1
     6     3     8   ar
     7     3     4   ar
     8     4     5   ar
     9     5     6   ar
    10     6     7   ar
    11     6    12    1
    12     7     8   ar
    13     8     9    1
    14     9    10    2
    15     9    11    2
    16    12    13    3
    17    17    21    1
    18    17    18    1
    19    18    19    1
    20    19    20    1
    21    20    25   ar
    22    20    21   ar
    23    21    22   ar
    24    22    23   ar
    25    23    24   ar
    26    24    25   ar
    27     1     2    1
@<TRIPOS>MOLECULE
ZINC20754448
 24 26 0 0 0
SMALL
GASTEIGER

@<TRIPOS>ATOM
      1 N          12.5672   37.5254   26.8349 N.2     1  UNL1       -0.1793
      2 C          11.3520   37.4234   26.2985 C.2     1  UNL1        0.1240
      3 C          11.0633   38.0725   25.1122 C.ar    1  UNL1        0.0513
      4 C          10.4821   37.5173   23.8756 C.ar    1  UNL1        0.0099
      5 C          10.2943   38.3422   22.8549 C.ar    1  UNL1        0.0218
      6 C          10.6762   39.7491   23.0234 C.ar    1  UNL1        0.0784
      7 S          11.2937   39.7935   24.6976 S.2     1  UNL1       -0.0707
      8 N          10.5794   40.7584   22.1362 N.pl3   1  UNL1       -0.2977
      9 C          11.8145   40.8886   21.3493 C.3     1  UNL1        0.1234
     10 C          11.6396   42.0048   20.3162 C.3     1  UNL1        0.1636
     11 O          11.2951   43.2194   20.9878 O.3     1  UNL1       -0.3501
     12 C          10.0969   43.1287   21.7632 C.3     1  UNL1        0.1636
     13 C          10.2561   42.0240   22.8111 C.3     1  UNL1        0.1234
     14 N          12.8366   36.9197   27.9416 N.pl3   1  UNL1       -0.2359
     15 H          12.6283   35.9628   28.0425 H       1  UNL1        0.1744
     16 C          12.6663   37.9431   30.1151 C.ar    1  UNL1        0.0177
     17 C          13.2526   38.6314   31.1569 C.ar    1  UNL1        0.0254
     18 C          14.5825   39.0074   31.0797 C.ar    1  UNL1        0.1430
     19 C          15.3329   38.6896   29.9608 C.ar    1  UNL1        0.0254
     20 C          14.7579   37.9966   28.9158 C.ar    1  UNL1        0.0177
     21 C          13.4189   37.6159   28.9883 C.ar    1  UNL1        0.0651
     22 N          15.2046   39.7517   32.1978 N.pl3   1  UNL1        0.0577
     23 O          15.5338   39.1211   33.3061 O.2     1  UNL1       -0.1261
     24 O          15.4289   41.0445   32.0842 O.2     1  UNL1       -0.1261
@<TRIPOS>BOND
     1    16    21   ar
     2    16    17   ar
     3    17    18   ar
     4    18    19   ar
     5    18    22    1
     6    19    20   ar
     7    20    21   ar
     8    21    14    1
     9    14     1    1
    10     1     2    2
    11     2     3    1
    12     3     7   ar
    13     3     4   ar
    14     4     5   ar
    15     5     6   ar
    16     6     7   ar
    17     6     8    1
    18     8    13    1
    19     8     9    1
    20     9    10    1
    21    10    11    1
    22    11    12    1
    23    12    13    1
    24    22    23    2
    25    22    24    2
    26    14    15    1
@<TRIPOS>MOLECULE
ZINC23716157
 24 26 0 0 0
SMALL
GASTEIGER

@<TRIPOS>ATOM
      1 C          18.6060   40.1733   33.7170 C.ar    1  UNL1        0.0674
      2 C          19.9513   39.9296   33.3990 C.ar    1  UNL1        0.0160
      3 C          20.2748   39.2893   32.2466 C.ar    1  UNL1        0.0014
      4 C          19.2501   38.8775   31.3572 C.ar    1  UNL1        0.0034
      5 C          17.8938   39.1279   31.6853 C.ar    1  UNL1        0.0254
      6 C          17.5860   39.7638   32.8448 C.ar    1  UNL1        0.1558
      7 C          19.5751   38.2235   30.1663 C.2     1  UNL1        0.0259
      8 C          20.5457   38.8176   29.2468 C.2     1  UNL1        0.1602
      9 C          21.0843   38.2109   27.9980 C.2     1  UNL1        0.3650
     10 O          20.8128   37.1239   27.5315 O.2     1  UNL1       -0.2427
     11 O          21.9408   39.1281   27.4948 O.3     1  UNL1       -0.4014
     12 C          21.9479   40.1916   28.3225 C.2     1  UNL1        0.2393
     13 N          21.1212   40.0006   29.3551 N.2     1  UNL1       -0.2042
     14 C          22.7176   41.3406   28.1273 C.ar    1  UNL1        0.0831
     15 C          22.4721   42.6660   28.5709 C.ar    1  UNL1        0.0117
     16 C          23.3918   43.6018   28.2401 C.ar    1  UNL1        0.0076
     17 C          24.5053   43.2207   27.4979 C.ar    1  UNL1        0.0356
     18 S          24.2678   41.5197   27.2622 S.2     1  UNL1       -0.0818
     19 C          19.3052   41.5930   35.5998 C.3     1  UNL1        0.1086
     20 N          18.2863   40.8168   34.8887 N.pl3   1  UNL1       -0.3300
     21 H          17.3726   40.7562   35.2501 H       1  UNL1        0.1469
     22 N          16.1706   40.0260   33.1895 N.pl3   1  UNL1        0.0589
     23 O          15.7515   41.2636   33.3543 O.2     1  UNL1       -0.1261
     24 O          15.3304   39.0218   33.3315 O.2     1  UNL1       -0.1261
@<TRIPOS>BOND
     1    19    20    1
     2    20     1    1
     3     1     6   ar
     4     1     2   ar
     5     2     3   ar
     6     3     4   ar
     7     4     5   ar
     8     4     7    1
     9     5     6   ar
    10     6    22    1
    11    22    23    2
    12    22    24    2
    13     7     8    2
    14     8    13    1
    15     8     9    1
    16     9    10    2
    17     9    11    1
    18    11    12    1
    19    12    13    2
    20    12    14    1
    21    14    18   ar
    22    14    15   ar
    23    15    16   ar
    24    16    17   ar
    25    17    18   ar
    26    20    21    1
@<TRIPOS>MOLECULE
ZINC15789857
 24 25 0 0 0
SMALL
GASTEIGER

@<TRIPOS>ATOM
      1 N          11.8401   37.5096   27.1901 N.am    1  UNL1       -0.2969
      2 C          12.9481   36.7848   27.4419 C.2     1  UNL1        0.2462
      3 O          13.1121   35.7123   26.8906 O.2     1  UNL1       -0.2701
      4 H          11.7076   38.3772   27.6360 H       1  UNL1        0.1501
      5 C          13.9545   37.2878   28.3784 C.2     1  UNL1        0.0577
      6 C          13.5759   38.0199   29.4458 C.2     1  UNL1        0.0047
      7 C          14.5876   38.5256   30.3873 C.ar    1  UNL1        0.0019
      8 C          14.1947   39.2376   31.5255 C.ar    1  UNL1        0.0010
      9 C          15.1476   39.7079   32.4031 C.ar    1  UNL1        0.0131
     10 C          16.4921   39.4773   32.1599 C.ar    1  UNL1        0.0801
     11 C          16.8885   38.7730   31.0348 C.ar    1  UNL1        0.1533
     12 C          15.9464   38.2962   30.1485 C.ar    1  UNL1        0.0249
     13 CL         17.6856   40.0743   33.2702 Cl      1  UNL1       -0.0805
     14 N          18.3275   38.5370   30.7804 N.pl3   1  UNL1        0.0585
     15 O          19.0391   38.1000   31.6671 O.2     1  UNL1       -0.1261
     16 O          18.7999   38.7797   29.6842 O.2     1  UNL1       -0.1261
     17 C          10.8329   37.0063   26.2528 C.3     1  UNL1        0.1166
     18 C          10.3776   37.3978   23.8231 C.ar    1  UNL1       -0.0003
     19 C          10.3206   38.2232   22.7161 C.ar    1  UNL1        0.0294
     20 C          10.6731   39.5573   22.8292 C.ar    1  UNL1        0.1401
     21 C          11.0773   40.0642   24.0527 C.ar    1  UNL1        0.0294
     22 C          11.1284   39.2382   25.1594 C.ar    1  UNL1       -0.0003
     23 C          10.7763   37.9062   25.0453 C.ar    1  UNL1       -0.0024
     24 F          10.6223   40.3641   21.7467 F       1  UNL1       -0.2042
@<TRIPOS>BOND
     1    18    23   ar
     2    18    19   ar
     3    19    20   ar
     4    20    21   ar
     5    20    24    1
     6    21    22   ar
     7    22    23   ar
     8    23    17    1
     9    17     1    1
    10     1     2   am
    11     2     3    2
    12     2     5    1
    13     5     6    2
    14     6     7    1
    15     7    12   ar
    16     7     8   ar
    17     8     9   ar
    18     9    10   ar
    19    10    11   ar
    20    10    13    1
    21    11    12   ar
    22    11    14    1
    23    14    15    2
    24    14    16    2
    25     1     4    1
@<TRIPOS>MOLECULE
ZINC30774036
 36 39 0 0 0
SMALL
GASTEIGER

@<TRIPOS>ATOM
      1 C          13.3984   38.3681   30.1752 C.ar    1  UNL1        0.0972
      2 N          12.4061   37.8544   29.4856 N.ar    1  UNL1       -0.2428
      3 C          12.6119   37.2400   28.3395 C.ar    1  UNL1        0.1094
      4 C          13.8833   37.1560   27.8715 C.ar    1  UNL1        0.0550
      5 S          14.7687   38.0014   29.1734 S.2     1  UNL1       -0.0700
      6 C          13.3577   39.0950   31.4945 C.3     1  UNL1        0.1377
      7 N          15.5317   39.0871   32.6744 N.am    1  UNL1       -0.2838
      8 C          14.7137   39.6845   31.7853 C.2     1  UNL1        0.2327
      9 O          15.0690   40.6966   31.2192 O.2     1  UNL1       -0.2743
     10 H          15.2135   38.3134   33.1935 H       1  UNL1        0.1549
     11 C          20.2844   39.0223   31.4179 C.3     1  UNL1        0.0311
     12 C          19.1560   39.5522   32.2646 C.ar    1  UNL1       -0.0206
     13 C          19.4067   40.5142   33.2263 C.ar    1  UNL1       -0.0045
     14 C          18.3741   41.0033   34.0048 C.ar    1  UNL1       -0.0034
     15 C          17.0873   40.5363   33.8204 C.ar    1  UNL1       -0.0084
     16 C          16.8331   39.5664   32.8597 C.ar    1  UNL1        0.0459
     17 C          17.8727   39.0772   32.0793 C.ar    1  UNL1        0.0101
     18 C          15.9613   41.0744   34.6652 C.3     1  UNL1        0.0323
     19 C          11.4630   36.6499   27.5628 C.3     1  UNL1        0.2544
     20 O          11.8363   36.5268   26.1651 O.3     1  UNL1       -0.4418
     21 C          10.8428   36.5669   25.2632 C.2     1  UNL1        0.3178
     22 O          11.0334   36.1744   24.1365 O.2     1  UNL1       -0.2501
     23 C           9.4897   37.1015   25.6561 C.3     1  UNL1        0.1177
     24 C           9.0846   38.2205   24.6944 C.3     1  UNL1        0.0808
     25 C           9.7893   39.4952   25.0815 C.2     1  UNL1        0.1736
     26 O          10.1872   39.6471   26.2168 O.2     1  UNL1       -0.2913
     27 C           9.9944   40.5554   24.0817 C.ar    1  UNL1        0.0344
     28 C           9.3471   41.7880   24.2173 C.ar    1  UNL1        0.0025
     29 C           9.5474   42.7679   23.2731 C.ar    1  UNL1       -0.0045
     30 C          10.3850   42.5473   22.1842 C.ar    1  UNL1       -0.0261
     31 C          11.0290   41.3360   22.0456 C.ar    1  UNL1       -0.0260
     32 C          10.8358   40.3400   22.9897 C.ar    1  UNL1       -0.0017
     33 C          11.9561   41.0377   20.8959 C.3     1  UNL1        0.0260
     34 C          11.7317   42.0266   19.7540 C.3     1  UNL1        0.0050
     35 C          11.7867   43.4475   20.3275 C.3     1  UNL1        0.0050
     36 C          10.5451   43.6675   21.1890 C.3     1  UNL1        0.0260
@<TRIPOS>BOND
     1    11    12    1
     2    12    17   ar
     3    12    13   ar
     4    13    14   ar
     5    14    15   ar
     6    15    16   ar
     7    15    18    1
     8    16    17   ar
     9    16     7    1
    10     7     8   am
    11     8     9    2
    12     8     6    1
    13     6     1    1
    14     1     5   ar
    15     1     2   ar
    16     2     3   ar
    17     3     4   ar
    18     3    19    1
    19     4     5   ar
    20    19    20    1
    21    20    21    1
    22    21    22    2
    23    21    23    1
    24    23    24    1
    25    24    25    1
    26    25    26    2
    27    25    27    1
    28    27    32   ar
    29    27    28   ar
    30    28    29   ar
    31    29    30   ar
    32    30    36    1
    33    30    31   ar
    34    31    32   ar
    35    31    33    1
    36    33    34    1
    37    34    35    1
    38    35    36    1
    39     7    10    1
@<TRIPOS>MOLECULE
ZINC16896240
 37 40 0 0 0
SMALL
GASTEIGER

@<TRIPOS>ATOM
      1 N          12.1189   37.7812   27.6404 N.ar    1  UNL1       -0.2715
      2 C          11.1052   37.8680   28.5364 C.ar    1  UNL1        0.1816
      3 N          11.3173   38.1480   29.7936 N.ar    1  UNL1       -0.2186
      4 C          12.5387   38.3755   30.2591 C.ar    1  UNL1        0.1169
      5 C          13.6777   38.3203   29.4232 C.ar    1  UNL1        0.0768
      6 C          13.3982   37.9933   28.0062 C.ar    1  UNL1        0.2640
      7 O          14.3015   37.9182   27.1923 O.2     1  UNL1       -0.2669
      8 C          14.9010   38.5795   30.0441 C.ar    1  UNL1       -0.0030
      9 C          14.9384   38.8642   31.3787 C.ar    1  UNL1        0.1027
     10 S          13.2183   38.7809   31.8480 S.2     1  UNL1       -0.0617
     11 C          16.1770   38.5456   29.2430 C.3     1  UNL1        0.0320
     12 C          16.1012   39.1631   32.2172 C.2     1  UNL1        0.3470
     13 O          16.0007   39.1340   33.4290 O.2     1  UNL1       -0.2443
     14 O          17.2837   39.4708   31.6456 O.3     1  UNL1       -0.4447
     15 C          18.3231   38.4581   31.6950 C.3     1  UNL1        0.2134
     16 C          19.6831   39.1320   31.8876 C.3     1  UNL1        0.0738
     17 C          19.7281   39.7952   33.2400 C.ar    1  UNL1       -0.0184
     18 C          20.1392   39.0783   34.3482 C.ar    1  UNL1       -0.0041
     19 C          20.1850   39.6882   35.5879 C.ar    1  UNL1       -0.0003
     20 C          19.8101   41.0121   35.7212 C.ar    1  UNL1       -0.0000
     21 C          19.3935   41.7273   34.6140 C.ar    1  UNL1       -0.0003
     22 C          19.3527   41.1189   33.3734 C.ar    1  UNL1       -0.0041
     23 C          11.8165   37.4561   26.2443 C.3     1  UNL1        0.1662
     24 C          11.3275   38.6927   25.5352 C.2     1  UNL1        0.2469
     25 O          10.3776   39.3069   25.9726 O.2     1  UNL1       -0.2727
     26 N          11.9457   39.1159   24.4149 N.am    1  UNL1       -0.2824
     27 H          12.7629   38.6641   24.1030 H       1  UNL1        0.1549
     28 C          11.4261   40.1975   23.6951 C.ar    1  UNL1        0.0497
     29 C          11.9975   40.5666   22.4843 C.ar    1  UNL1        0.0104
     30 C          11.4781   41.6305   21.7732 C.ar    1  UNL1       -0.0209
     31 C          10.3984   42.3361   22.2717 C.ar    1  UNL1       -0.0084
     32 C           9.8311   41.9751   23.4800 C.ar    1  UNL1       -0.0209
     33 C          10.3416   40.9080   24.1928 C.ar    1  UNL1        0.0104
     34 C           8.6543   42.7465   24.0194 C.3     1  UNL1        0.0311
     35 C          12.0926   42.0267   20.4555 C.3     1  UNL1        0.0311
     36 C          10.3556   36.0991   24.7387 C.3     1  UNL1        0.0025
     37 C          10.7325   36.3775   26.1951 C.3     1  UNL1        0.0321
@<TRIPOS>BOND
     1    36    37    1
     2    37    23    1
     3    23    24    1
     4    23     1    1
     5    24    25    2
     6    24    26   am
     7    26    28    1
     8    28    33   ar
     9    28    29   ar
    10    29    30   ar
    11    30    31   ar
    12    30    35    1
    13    31    32   ar
    14    32    33   ar
    15    32    34    1
    16     1     6   ar
    17     1     2   ar
    18     2     3   ar
    19     3     4   ar
    20     4    10   ar
    21     4     5   ar
    22     5     6   ar
    23     5     8   ar
    24     6     7    2
    25     8     9   ar
    26     8    11    1
    27     9    10   ar
    28     9    12    1
    29    12    13    2
    30    12    14    1
    31    14    15    1
    32    15    16    1
    33    16    17    1
    34    17    22   ar
    35    17    18   ar
    36    18    19   ar
    37    19    20   ar
    38    20    21   ar
    39    21    22   ar
    40    26    27    1
@<TRIPOS>MOLECULE
ZINC01422872
 35 38 0 0 0
SMALL
GASTEIGER

@<TRIPOS>ATOM
      1 C          23.1222   49.4462   26.1850 C.2     1  UNL1        0.0279
      2 C          22.0078   50.1773   26.3595 C.2     1  UNL1        0.0711
      3 C          21.3862   50.9326   25.2210 C.3     1  UNL1        0.0837
      4 C          21.8774   50.4088   23.8949 C.2     1  UNL1        0.0309
      5 C          23.0026   49.6667   23.8209 C.2     1  UNL1        0.0248
      6 N          23.7085   49.3601   24.9532 N.pl3   1  UNL1       -0.3193
      7 C          23.5130   49.1599   22.4948 C.3     1  UNL1        0.0468
      8 C          22.3335   48.9120   21.5517 C.3     1  UNL1        0.0520
      9 C          21.5593   50.2238   21.3857 C.3     1  UNL1        0.1650
     10 C          21.1346   50.7172   22.7420 C.2     1  UNL1        0.1812
     11 O          20.1309   51.3946   22.8426 O.2     1  UNL1       -0.2910
     12 H          24.6480   49.0749   24.8795 H       1  UNL1        0.1516
     13 C          22.8452   48.4485   20.2122 C.ar    1  UNL1        0.0083
     14 C          22.4219   47.4113   19.4490 C.ar    1  UNL1        0.0027
     15 C          23.0465   47.1700   18.2397 C.ar    1  UNL1        0.0072
     16 C          24.0638   47.9779   17.8527 C.ar    1  UNL1        0.0351
     17 S          24.1609   49.1279   19.2148 S.2     1  UNL1       -0.0908
     18 C          21.7400   52.3927   25.3382 C.ar    1  UNL1        0.0155
     19 C          20.9181   53.4620   25.4741 C.ar    1  UNL1        0.0033
     20 C          21.4712   54.7255   25.5648 C.ar    1  UNL1        0.0072
     21 C          22.8192   54.8580   25.5152 C.ar    1  UNL1        0.0351
     22 S          23.3508   53.1625   25.3421 S.2     1  UNL1       -0.0901
     23 C          20.3410   49.9857   20.5314 C.2     1  UNL1        0.3243
     24 O          19.6408   49.0219   20.7332 O.2     1  UNL1       -0.2496
     25 O          20.0338   50.8442   19.5464 O.3     1  UNL1       -0.4482
     26 C          21.0579   51.0960   18.5484 C.3     1  UNL1        0.2086
     27 C          20.8706   50.1359   17.3719 C.3     1  UNL1        0.0513
     28 C          21.4127   50.2400   27.6411 C.2     1  UNL1        0.3387
     29 O          21.7720   51.0865   28.4381 O.2     1  UNL1       -0.2452
     30 O          20.4464   49.3612   27.9801 O.3     1  UNL1       -0.4456
     31 C          19.8715   49.4988   29.2811 C.3     1  UNL1        0.2089
     32 C          18.6345   50.3956   29.1997 C.3     1  UNL1        0.0513
     33 C          23.7257   48.7111   27.3540 C.3     1  UNL1        0.0411
     34 C          24.5712   46.4101   27.8359 C.3     1  UNL1        0.0004
     35 C          24.6066   47.5707   26.8397 C.3     1  UNL1        0.0060
@<TRIPOS>BOND
     1    34    35    1
     2    35    33    1
     3    33     1    1
     4     1     6    1
     5     1     2    2
     6     2     3    1
     7     2    28    1
     8     3     4    1
     9     3    18    1
    10     4    10    1
    11     4     5    2
    12     5     6    1
    13     5     7    1
    14     7     8    1
    15     8     9    1
    16     8    13    1
    17     9    10    1
    18     9    23    1
    19    10    11    2
    20    23    24    2
    21    23    25    1
    22    25    26    1
    23    26    27    1
    24    13    17   ar
    25    13    14   ar
    26    14    15   ar
    27    15    16   ar
    28    16    17   ar
    29    18    22   ar
    30    18    19   ar
    31    19    20   ar
    32    20    21   ar
    33    21    22   ar
    34    28    29    2
    35    28    30    1
    36    30    31    1
    37    31    32    1
    38     6    12    1
@<TRIPOS>MOLECULE
ZINC09003433
 36 39 0 0 0
SMALL
GASTEIGER

@<TRIPOS>ATOM
      1 C          24.6254   37.4795   30.2006 C.ar    1  UNL1        0.1507
      2 C          25.4561   38.5509   29.8637 C.ar    1  UNL1        0.1123
      3 N          25.0237   39.4786   29.0249 N.ar    1  UNL1       -0.2206
      4 C          23.8152   39.4206   28.4906 C.ar    1  UNL1        0.1742
      5 N          22.9556   38.4049   28.7752 N.ar    1  UNL1       -0.2663
      6 C          23.3256   37.4247   29.6269 C.ar    1  UNL1        0.2705
      7 O          22.5644   36.5119   29.8946 O.2     1  UNL1       -0.2666
      8 C          25.0810   36.4393   31.1277 C.2     1  UNL1        0.3474
      9 O          25.5855   35.4197   30.6974 O.2     1  UNL1       -0.2447
     10 O          24.9409   36.6128   32.4577 O.3     1  UNL1       -0.4453
     11 C          26.7869   36.1664   33.9821 C.3     1  UNL1        0.0513
     12 C          25.5280   35.6027   33.3199 C.3     1  UNL1        0.2089
     13 C          21.6256   38.3782   28.1617 C.3     1  UNL1        0.1961
     14 C          20.6124   38.9236   29.1349 C.2     1  UNL1        0.2494
     15 O          20.3361   40.1046   29.1244 O.2     1  UNL1       -0.2727
     16 N          20.0132   38.0992   30.0168 N.am    1  UNL1       -0.2823
     17 H          20.2952   37.1582   30.0809 H       1  UNL1        0.1549
     18 C          18.9927   38.5798   30.8394 C.ar    1  UNL1        0.0503
     19 C          17.6830   38.5520   30.4110 C.ar    1  UNL1        0.0147
     20 C          16.6591   39.0338   31.2209 C.ar    1  UNL1        0.0013
     21 C          16.9193   39.5339   32.4604 C.ar    1  UNL1        0.0001
     22 C          18.2404   39.5743   32.9374 C.ar    1  UNL1        0.0012
     23 C          19.2921   39.0921   32.1197 C.ar    1  UNL1        0.0135
     24 C          20.6111   39.1318   32.5980 C.ar    1  UNL1        0.0012
     25 C          20.8634   39.6334   33.8384 C.ar    1  UNL1        0.0000
     26 C          19.8299   40.1082   34.6434 C.ar    1  UNL1        0.0000
     27 C          18.5390   40.0844   34.2128 C.ar    1  UNL1        0.0000
     28 S          23.3053   40.6909   27.3812 S.3     1  UNL1       -0.0724
     29 C          24.8983   41.4900   27.0648 C.3     1  UNL1        0.0921
     30 C          24.9111   42.8550   27.7029 C.ar    1  UNL1       -0.0003
     31 C          23.9194   43.2086   28.5988 C.ar    1  UNL1       -0.0026
     32 C          23.9334   44.4591   29.1876 C.ar    1  UNL1       -0.0002
     33 C          24.9337   45.3605   28.8736 C.ar    1  UNL1        0.0008
     34 C          25.9225   45.0101   27.9741 C.ar    1  UNL1        0.0111
     35 C          25.9118   43.7567   27.3881 C.ar    1  UNL1        0.0545
     36 CL         27.1535   43.3159   26.2577 Cl      1  UNL1       -0.0825
@<TRIPOS>BOND
     1    11    12    1
     2    12    10    1
     3    10     8    1
     4     8     9    2
     5     8     1    1
     6     1     6   ar
     7     1     2   ar
     8     2     3   ar
     9     3     4   ar
    10     4     5   ar
    11     4    28    1
    12     5     6   ar
    13     5    13    1
    14     6     7    2
    15    13    14    1
    16    14    15    2
    17    14    16   am
    18    16    18    1
    19    18    23   ar
    20    18    19   ar
    21    19    20   ar
    22    20    21   ar
    23    21    22   ar
    24    22    27   ar
    25    22    23   ar
    26    23    24   ar
    27    24    25   ar
    28    25    26   ar
    29    26    27   ar
    30    28    29    1
    31    29    30    1
    32    30    35   ar
    33    30    31   ar
    34    31    32   ar
    35    32    33   ar
    36    33    34   ar
    37    34    35   ar
    38    35    36    1
    39    16    17    1
@<TRIPOS>MOLECULE
ZINC03374447
 35 37 0 0 0
SMALL
GASTEIGER

@<TRIPOS>ATOM
      1 C          21.0640   37.5582   28.2266 C.2     1  UNL1        0.3440
      2 O          20.4553   36.5847   27.8283 O.2     1  UNL1       -0.2448
      3 C          22.5212   37.6461   28.0316 C.ar    1  UNL1        0.1040
      4 C          23.1916   37.8900   26.8115 C.ar    1  UNL1        0.0863
      5 N          24.4740   37.8944   27.0496 N.ar    1  UNL1       -0.1735
      6 N          24.6831   37.6573   28.4127 N.ar    1  UNL1       -0.2505
      7 C          23.4889   37.5116   29.0080 C.ar    1  UNL1        0.0637
      8 C          23.2483   37.2470   30.4720 C.3     1  UNL1        0.0520
      9 C          22.5391   38.1064   25.4703 C.3     1  UNL1        0.0542
     10 C          25.9858   37.5863   29.0790 C.3     1  UNL1        0.1551
     11 C          26.4003   36.1442   29.2193 C.ar    1  UNL1        0.0233
     12 C          26.3808   35.5364   30.4617 C.ar    1  UNL1        0.0564
     13 C          26.7557   34.2105   30.5888 C.ar    1  UNL1        0.0112
     14 C          27.1612   33.4970   29.4767 C.ar    1  UNL1        0.0017
     15 C          27.1864   34.1055   28.2359 C.ar    1  UNL1        0.0112
     16 C          26.8059   35.4294   28.1065 C.ar    1  UNL1        0.0564
     17 CL         26.8370   36.1934   26.5479 Cl      1  UNL1       -0.0825
     18 CL         25.8789   36.4345   31.8599 Cl      1  UNL1       -0.0825
     19 O          20.4065   38.5548   28.8513 O.3     1  UNL1       -0.4352
     20 C          19.4849   38.1760   29.9075 C.3     1  UNL1        0.2930
     21 N          18.9268   38.9201   32.1996 N.am    1  UNL1       -0.2807
     22 C          19.6866   39.0781   31.0978 C.2     1  UNL1        0.2708
     23 O          20.5329   39.9462   31.0641 O.2     1  UNL1       -0.2707
     24 H          18.1968   38.2595   32.2035 H       1  UNL1        0.1550
     25 C          18.2113   40.6049   33.7875 C.ar    1  UNL1        0.0891
     26 C          18.4721   41.3727   34.9256 C.ar    1  UNL1        0.0077
     27 C          19.6693   41.2287   35.5921 C.ar    1  UNL1        0.0003
     28 C          20.6178   40.3250   35.1401 C.ar    1  UNL1        0.0013
     29 C          20.3725   39.5559   34.0206 C.ar    1  UNL1        0.0149
     30 C          19.1741   39.6912   33.3324 C.ar    1  UNL1        0.0566
     31 C          16.9325   40.7535   33.0700 C.2     1  UNL1        0.3424
     32 O          16.4726   41.8605   32.8710 O.2     1  UNL1       -0.2448
     33 O          16.2732   39.6618   32.6348 O.3     1  UNL1       -0.4454
     34 C          15.8237   39.0311   30.3261 C.3     1  UNL1        0.0513
     35 C          15.3489   39.8465   31.5304 C.3     1  UNL1        0.2089
@<TRIPOS>BOND
     1    34    35    1
     2    35    33    1
     3    33    31    1
     4    31    32    2
     5    31    25    1
     6    25    30   ar
     7    25    26   ar
     8    26    27   ar
     9    27    28   ar
    10    28    29   ar
    11    29    30   ar
    12    30    21    1
    13    21    22   am
    14    22    23    2
    15    22    20    1
    16    20    19    1
    17    19     1    1
    18     1     2    2
    19     1     3    1
    20     3     7   ar
    21     3     4   ar
    22     4     5   ar
    23     4     9    1
    24     5     6   ar
    25     6     7   ar
    26     6    10    1
    27     7     8    1
    28    10    11    1
    29    11    16   ar
    30    11    12   ar
    31    12    13   ar
    32    12    18    1
    33    13    14   ar
    34    14    15   ar
    35    15    16   ar
    36    16    17    1
    37    21    24    1
@<TRIPOS>MOLECULE
ZINC31838497
 34 37 0 0 0
SMALL
GASTEIGER

@<TRIPOS>ATOM
      1 N          12.4369   38.6652   30.5153 N.ar    1  UNL1       -0.2757
      2 C          13.2233   39.2494   31.4388 C.ar    1  UNL1        0.2639
      3 O          12.7329   39.8666   32.3687 O.2     1  UNL1       -0.2669
      4 C          14.6432   39.1347   31.3113 C.ar    1  UNL1        0.0762
      5 C          15.6795   39.6901   32.1975 C.ar    1  UNL1       -0.0136
      6 C          16.9570   39.4416   31.8679 C.ar    1  UNL1        0.0049
      7 S          16.8689   38.4794   30.3752 S.2     1  UNL1       -0.0725
      8 C          15.1051   38.4044   30.2071 C.ar    1  UNL1        0.1168
      9 N          14.2757   37.8515   29.3291 N.ar    1  UNL1       -0.2158
     10 C          12.9706   37.9714   29.4681 C.ar    1  UNL1        0.1743
     11 C          17.9253   40.0524   32.8453 C.3     1  UNL1        0.0330
     12 C          17.0706   40.3651   34.0931 C.3     1  UNL1        0.0099
     13 C          15.6672   40.5300   33.4779 C.3     1  UNL1        0.0271
     14 C          10.9811   38.7761   30.6368 C.3     1  UNL1        0.1110
     15 C          10.4761   39.8915   29.7193 C.3     1  UNL1        0.0247
     16 C          10.0248   41.0832   30.5660 C.3     1  UNL1        0.0020
     17 C           9.3429   42.1175   29.6682 C.3     1  UNL1        0.0001
     18 C          10.1114   44.4863   29.4655 C.3     1  UNL1        0.0000
     19 C           9.3701   43.4850   30.3538 C.3     1  UNL1        0.0000
     20 S          11.8993   37.2256   28.2846 S.3     1  UNL1       -0.0689
     21 C          12.4623   38.0607   26.7807 C.3     1  UNL1        0.1340
     22 C          11.4293   37.8931   25.6964 C.2     1  UNL1        0.1858
     23 O          10.9088   36.8122   25.5163 O.2     1  UNL1       -0.2903
     24 C          11.0534   39.0365   24.8591 C.ar    1  UNL1        0.0544
     25 C          11.3975   39.2349   23.5002 C.ar    1  UNL1        0.0262
     26 C          10.8441   40.4198   23.1184 C.ar    1  UNL1        0.1142
     27 N          10.1727   40.9540   24.1972 N.ar    1  UNL1       -0.3204
     28 C          10.2884   40.1259   25.2458 C.ar    1  UNL1        0.0789
     29 C           9.4418   42.2236   24.1966 C.3     1  UNL1        0.1306
     30 C          10.9452   41.0248   21.7842 C.2     1  UNL1        0.2618
     31 O          10.3390   40.5382   20.8481 O.2     1  UNL1       -0.2686
     32 N          11.7094   42.1190   21.5966 N.am    1  UNL1       -0.2980
     33 C          11.7225   42.7886   20.2936 C.3     1  UNL1        0.1110
     34 H          12.2587   42.4683   22.3351 H       1  UNL1        0.1498
@<TRIPOS>BOND
     1    18    19    1
     2    19    17    1
     3    17    16    1
     4    16    15    1
     5    15    14    1
     6    14     1    1
     7     1    10   ar
     8     1     2   ar
     9     2     3    2
    10     2     4   ar
    11     4     8   ar
    12     4     5   ar
    13     5    13    1
    14     5     6   ar
    15     6     7   ar
    16     6    11    1
    17     7     8   ar
    18     8     9   ar
    19     9    10   ar
    20    10    20    1
    21    20    21    1
    22    21    22    1
    23    22    23    2
    24    22    24    1
    25    24    28   ar
    26    24    25   ar
    27    25    26   ar
    28    26    27   ar
    29    26    30    1
    30    27    28   ar
    31    27    29    1
    32    30    31    2
    33    30    32   am
    34    32    33    1
    35    11    12    1
    36    12    13    1
    37    32    34    1
@<TRIPOS>MOLECULE
ZINC10039371
 37 39 0 0 0
SMALL
GASTEIGER

@<TRIPOS>ATOM
      1 C          25.4129   38.9143   26.0317 C.2     1  UNL1        0.2487
      2 O          25.6321   37.7988   25.6010 O.2     1  UNL1       -0.2698
      3 N          25.2209   39.1010   27.3525 N.am    1  UNL1       -0.2955
      4 H          25.0437   40.0044   27.7013 H       1  UNL1        0.1538
      5 C          24.7993   40.9785   22.9537 C.ar    1  UNL1        0.1754
      6 C          24.8564   39.8985   23.8144 C.ar    1  UNL1        0.0448
      7 C          25.3574   40.0637   25.1084 C.ar    1  UNL1        0.0599
      8 C          25.8054   41.3196   25.5265 C.ar    1  UNL1        0.0448
      9 C          25.7519   42.3948   24.6596 C.ar    1  UNL1        0.1754
     10 C          25.2517   42.2275   23.3709 C.ar    1  UNL1        0.2059
     11 O          24.3062   40.8198   21.6962 O.3     1  UNL1       -0.4723
     12 C          22.0864   41.7167   21.3664 C.3     1  UNL1        0.0512
     13 C          22.9287   40.4575   21.5805 C.3     1  UNL1        0.2057
     14 O          25.1998   43.2864   22.5208 O.3     1  UNL1       -0.4695
     15 C          26.3999   43.6128   21.8171 C.3     1  UNL1        0.2058
     16 C          26.2153   43.3140   20.3279 C.3     1  UNL1        0.0512
     17 O          26.1877   43.6174   25.0658 O.3     1  UNL1       -0.4723
     18 C          27.5147   43.6916   25.5908 C.3     1  UNL1        0.2057
     19 C          27.5037   44.4937   26.8937 C.3     1  UNL1        0.0512
     20 C          25.2715   38.0510   28.1959 C.2     1  UNL1       -0.0341
     21 S          26.7323   37.6722   29.0044 S.2     1  UNL1       -0.0617
     22 N          24.1721   37.2993   28.4030 N.am    1  UNL1       -0.6214
     23 C          23.2113   37.7120   29.3141 C.ar    1  UNL1       -0.0830
     24 C          21.8556   37.9176   29.1034 C.ar    1  UNL1        0.0477
     25 C          21.0575   38.3506   30.2373 C.ar    1  UNL1       -0.0119
     26 C          21.7407   38.5181   31.3911 C.ar    1  UNL1        0.0021
     27 S          23.4143   38.1030   30.9899 S.2     1  UNL1       -0.1158
     28 C          21.1885   38.9582   32.7118 C.3     1  UNL1        0.0326
     29 C          19.6588   38.8341   32.6620 C.3     1  UNL1        0.0052
     30 C          19.1538   39.4745   31.3659 C.3     1  UNL1        0.0051
     31 C          19.5582   38.6134   30.1680 C.3     1  UNL1        0.0272
     32 C          19.0463   39.5565   33.8637 C.3     1  UNL1        0.0003
     33 C          19.3995   38.8018   35.1468 C.3     1  UNL1        0.0000
     34 C          19.6017   40.9801   33.9401 C.3     1  UNL1        0.0000
     35 C          17.5255   39.6102   33.7056 C.3     1  UNL1        0.0000
     36 C          21.2642   37.7070   27.8164 C.1     1  UNL1        0.0987
     37 N          20.7950   37.5400   26.7954 N.1     1  UNL1       -0.1909
@<TRIPOS>UNITY_ATOM_ATTR
22 1
charge -1
@<TRIPOS>BOND
     1    12    13    1
     2    13    11    1
     3    11     5    1
     4     5    10   ar
     5     5     6   ar
     6     6     7   ar
     7     7     8   ar
     8     7     1    1
     9     8     9   ar
    10     9    10   ar
    11     9    17    1
    12    10    14    1
    13    14    15    1
    14    15    16    1
    15    17    18    1
    16    18    19    1
    17     1     2    2
    18     1     3   am
    19     3    20    1
    20    20    21    2
    21    20    22    1
    22    22    23    1
    23    23    27   ar
    24    23    24   ar
    25    24    25   ar
    26    24    36    1
    27    25    31    1
    28    25    26   ar
    29    26    27   ar
    30    26    28    1
    31    28    29    1
    32    29    30    1
    33    29    32    1
    34    30    31    1
    35    32    33    1
    36    32    34    1
    37    32    35    1
    38    36    37    3
    39     3     4    1
@<TRIPOS>MOLECULE
ZINC12566899
 35 38 0 0 0
SMALL
GASTEIGER

@<TRIPOS>ATOM
      1 C          24.3766   39.1752   25.8633 C.2     1  UNL1        0.2493
      2 O          23.9673   38.1422   25.3770 O.2     1  UNL1       -0.2727
      3 N          24.7410   40.1980   25.0649 N.am    1  UNL1       -0.2823
      4 H          25.1456   41.0066   25.4544 H       1  UNL1        0.1549
      5 C          24.5442   40.1106   23.6823 C.ar    1  UNL1        0.0517
      6 C          23.2571   40.0338   23.1660 C.ar    1  UNL1        0.0148
      7 C          23.0663   39.9481   21.8010 C.ar    1  UNL1        0.0026
      8 C          24.1549   39.9442   20.9480 C.ar    1  UNL1        0.0200
      9 C          25.4376   40.0152   21.4591 C.ar    1  UNL1        0.1234
     10 C          25.6353   40.1011   22.8234 C.ar    1  UNL1        0.0346
     11 S          26.8214   40.0036   20.3683 S.O2    1  UNL1        0.0633
     12 O          27.8530   39.2832   21.0287 O.2     1  UNL1       -0.1528
     13 O          26.9942   41.3401   19.9172 O.2     1  UNL1       -0.1528
     14 N          26.3926   39.1083   19.0428 N.3     1  UNL1       -0.1555
     15 C          26.1318   39.7597   17.7520 C.3     1  UNL1        0.0958
     16 C          24.7500   39.3273   17.2516 C.3     1  UNL1        0.0192
     17 C          24.6825   37.7989   17.2095 C.3     1  UNL1        0.0030
     18 C          24.8829   37.2386   18.6195 C.3     1  UNL1        0.0192
     19 C          26.2662   37.6475   19.1353 C.3     1  UNL1        0.0958
     20 C          24.4778   39.3150   27.3604 C.3     1  UNL1        0.1935
     21 C          22.1773   40.0926   28.0611 C.ar    1  UNL1        0.1716
     22 N          21.6121   41.2031   28.4671 N.ar    1  UNL1       -0.2211
     23 C          22.5391   42.1953   28.5163 C.ar    1  UNL1        0.0992
     24 C          22.4816   43.5454   28.8719 C.ar    1  UNL1        0.0206
     25 C          23.6248   44.3120   28.8325 C.ar    1  UNL1        0.0016
     26 C          24.8307   43.7574   28.4301 C.ar    1  UNL1        0.0016
     27 C          24.9030   42.4272   28.0712 C.ar    1  UNL1        0.0188
     28 C          23.7636   41.6382   28.1126 C.ar    1  UNL1        0.0797
     29 N          23.5057   40.3077   27.8250 N.ar    1  UNL1       -0.2978
     30 S          21.3480   38.5522   27.8512 S.3     1  UNL1       -0.0773
     31 C          21.2871   37.9911   29.5710 C.3     1  UNL1        0.0651
     32 C          19.9553   38.4096   30.1972 C.3     1  UNL1        0.0121
     33 C          20.2185   39.1367   31.5173 C.3     1  UNL1        0.0009
     34 C          19.4236   39.0197   33.8832 C.3     1  UNL1        0.0000
     35 C          18.9862   39.0225   32.4170 C.3     1  UNL1        0.0000
@<TRIPOS>BOND
     1    34    35    1
     2    35    33    1
     3    33    32    1
     4    32    31    1
     5    31    30    1
     6    30    21    1
     7    21    29   ar
     8    21    22   ar
     9    22    23   ar
    10    23    28   ar
    11    23    24   ar
    12    24    25   ar
    13    25    26   ar
    14    26    27   ar
    15    27    28   ar
    16    28    29   ar
    17    29    20    1
    18    20     1    1
    19     1     2    2
    20     1     3   am
    21     3     5    1
    22     5    10   ar
    23     5     6   ar
    24     6     7   ar
    25     7     8   ar
    26     8     9   ar
    27     9    10   ar
    28     9    11    1
    29    11    12    2
    30    11    13    2
    31    11    14    1
    32    14    19    1
    33    14    15    1
    34    15    16    1
    35    16    17    1
    36    17    18    1
    37    18    19    1
    38     3     4    1
@<TRIPOS>MOLECULE
ZINC15033021
 34 36 0 0 0
SMALL
GASTEIGER

@<TRIPOS>ATOM
      1 N          16.7325   38.9974   30.6870 N.ar    1  UNL1       -0.2165
      2 C          16.7744   39.3342   31.9925 C.ar    1  UNL1        0.2763
      3 O          15.7557   39.6189   32.5952 O.2     1  UNL1       -0.2655
      4 C          18.0776   39.3451   32.6714 C.ar    1  UNL1        0.0593
      5 C          18.2270   39.6738   34.0151 C.ar    1  UNL1        0.0048
      6 C          19.4861   39.6656   34.5766 C.ar    1  UNL1        0.0002
      7 C          20.6001   39.3338   33.8166 C.ar    1  UNL1        0.0001
      8 C          20.4728   39.0052   32.4836 C.ar    1  UNL1        0.0019
      9 C          19.2119   39.0073   31.8975 C.ar    1  UNL1        0.0304
     10 C          18.9898   38.6694   30.4820 C.ar    1  UNL1        0.1764
     11 N          17.7697   38.6944   30.0020 N.ar    1  UNL1       -0.1602
     12 C          20.1261   38.3076   29.6139 C.2     1  UNL1        0.3612
     13 O          20.0584   37.3246   28.9028 O.2     1  UNL1       -0.2431
     14 O          21.2393   39.0671   29.6095 O.3     1  UNL1       -0.4386
     15 C          22.4511   38.4576   29.0914 C.3     1  UNL1        0.2447
     16 C          23.0860   37.5839   30.1751 C.3     1  UNL1        0.0575
     17 C          23.4212   39.5363   28.6835 C.2     1  UNL1        0.2664
     18 O          24.5993   39.4243   28.9489 O.2     1  UNL1       -0.2709
     19 N          22.9795   40.6255   28.0239 N.am    1  UNL1       -0.2809
     20 H          22.0361   40.6854   27.7486 H       1  UNL1        0.1550
     21 C          23.8618   41.6711   27.7303 C.ar    1  UNL1        0.0521
     22 C          24.6465   41.6183   26.5859 C.ar    1  UNL1        0.0261
     23 C          25.5131   42.6553   26.2951 C.ar    1  UNL1        0.0597
     24 C          25.6073   43.7399   27.1492 C.ar    1  UNL1        0.0229
     25 C          24.8306   43.7924   28.2933 C.ar    1  UNL1        0.0597
     26 C          23.9582   42.7606   28.5857 C.ar    1  UNL1        0.0261
     27 CL         24.9512   45.1551   29.3619 Cl      1  UNL1       -0.0822
     28 CL         26.4898   42.5932   24.8613 Cl      1  UNL1       -0.0822
     29 C          15.4303   38.9837   30.0161 C.3     1  UNL1        0.1307
     30 C          15.2113   37.6213   29.3553 C.3     1  UNL1        0.0265
     31 C          13.7286   37.4500   29.0189 C.3     1  UNL1        0.0021
     32 C          13.5474   37.4466   27.4996 C.3     1  UNL1        0.0001
     33 C          11.4160   36.2235   27.0484 C.3     1  UNL1        0.0000
     34 C          12.0633   37.6051   27.1627 C.3     1  UNL1        0.0000
@<TRIPOS>BOND
     1    33    34    1
     2    34    32    1
     3    32    31    1
     4    31    30    1
     5    30    29    1
     6    29     1    1
     7     1    11   ar
     8     1     2   ar
     9     2     3    2
    10     2     4   ar
    11     4     9   ar
    12     4     5   ar
    13     5     6   ar
    14     6     7   ar
    15     7     8   ar
    16     8     9   ar
    17     9    10   ar
    18    10    11   ar
    19    10    12    1
    20    12    13    2
    21    12    14    1
    22    14    15    1
    23    15    16    1
    24    15    17    1
    25    17    18    2
    26    17    19   am
    27    19    21    1
    28    21    26   ar
    29    21    22   ar
    30    22    23   ar
    31    23    24   ar
    32    23    28    1
    33    24    25   ar
    34    25    26   ar
    35    25    27    1
    36    19    20    1
@<TRIPOS>MOLECULE
ZINC18378297
 36 39 0 0 0
SMALL
GASTEIGER

@<TRIPOS>ATOM
      1 C          21.3881   37.4465   27.7910 C.2     1  UNL1        0.3176
      2 O          20.3703   36.7969   27.7465 O.2     1  UNL1       -0.2501
      3 O          21.7698   38.0177   28.9440 O.3     1  UNL1       -0.4442
      4 C          20.7972   38.8614   29.6153 C.3     1  UNL1        0.2311
      5 C          20.9297   40.2978   29.1055 C.3     1  UNL1        0.0560
      6 C          21.0463   38.8307   31.1013 C.2     1  UNL1        0.2278
      7 O          22.0499   38.3049   31.5378 O.2     1  UNL1       -0.2860
      8 C          17.9693   38.4317   30.9337 C.3     1  UNL1        0.0328
      9 C          18.7406   39.2499   31.9371 C.ar    1  UNL1        0.0005
     10 C          18.2006   39.9997   33.0066 C.ar    1  UNL1        0.0437
     11 C          19.2664   40.5898   33.6702 C.ar    1  UNL1        0.0365
     12 N          20.4035   40.2292   33.0599 N.ar    1  UNL1       -0.3542
     13 C          20.1075   39.4102   31.9887 C.ar    1  UNL1        0.0912
     14 C          19.1631   41.4823   34.8801 C.3     1  UNL1        0.0499
     15 H          21.3084   40.5051   33.3327 H       1  UNL1        0.1657
     16 C          16.7807   40.1293   33.3504 C.2     1  UNL1        0.1743
     17 O          16.2491   39.2979   34.0561 O.2     1  UNL1       -0.2913
     18 C          15.9820   41.2953   32.8270 C.3     1  UNL1        0.0773
     19 C          22.2290   37.6154   26.5518 C.3     1  UNL1        0.1143
     20 C          23.6992   37.7618   26.9491 C.3     1  UNL1        0.0402
     21 C          24.2859   38.9707   26.2669 C.2     1  UNL1        0.0052
     22 C          24.6494   38.9032   24.9662 C.2     1  UNL1        0.0352
     23 C          24.4624   40.2175   27.0121 C.ar    1  UNL1        0.1068
     24 N          23.5737   41.1572   27.2784 N.ar    1  UNL1       -0.2387
     25 C          23.8775   42.2590   27.9797 C.ar    1  UNL1        0.0878
     26 C          23.0242   43.3331   28.3315 C.ar    1  UNL1        0.0196
     27 C          23.4912   44.3864   29.0535 C.ar    1  UNL1        0.0016
     28 C          24.8126   44.4543   29.4728 C.ar    1  UNL1        0.0006
     29 C          25.6797   43.4262   29.1507 C.ar    1  UNL1        0.0080
     30 C          25.2187   42.3576   28.4224 C.ar    1  UNL1        0.0485
     31 S          25.9342   40.8546   27.8018 S.2     1  UNL1       -0.0668
     32 C          25.0366   40.1184   24.2514 C.ar    1  UNL1        0.1453
     33 C          24.2231   40.8765   23.4558 C.ar    1  UNL1        0.0407
     34 C          25.0052   41.9414   22.9766 C.ar    1  UNL1        0.0438
     35 C          26.2432   41.7890   23.4930 C.ar    1  UNL1        0.1796
     36 O          26.2573   40.6915   24.2656 O.2     1  UNL1       -0.4504
@<TRIPOS>BOND
     1     8     9    1
     2     9    13   ar
     3     9    10   ar
     4    10    11   ar
     5    10    16    1
     6    11    12   ar
     7    11    14    1
     8    12    13   ar
     9    13     6    1
    10     6     7    2
    11     6     4    1
    12     4     5    1
    13     4     3    1
    14     3     1    1
    15     1     2    2
    16     1    19    1
    17    19    20    1
    18    20    21    1
    19    21    22    2
    20    21    23    1
    21    22    32    1
    22    32    36   ar
    23    32    33   ar
    24    33    34   ar
    25    34    35   ar
    26    35    36   ar
    27    23    31   ar
    28    23    24   ar
    29    24    25   ar
    30    25    30   ar
    31    25    26   ar
    32    26    27   ar
    33    27    28   ar
    34    28    29   ar
    35    29    30   ar
    36    30    31   ar
    37    16    17    2
    38    16    18    1
    39    12    15    1
@<TRIPOS>MOLECULE
ZINC14115532
 37 40 0 0 0
SMALL
GASTEIGER

@<TRIPOS>ATOM
      1 C          11.5183   37.5513   27.9134 C.3     1  UNL1        0.1501
      2 N          10.5557   39.0812   26.2248 N.am    1  UNL1       -0.2781
      3 C          11.6110   38.3535   26.6410 C.2     1  UNL1        0.2379
      4 O          12.6352   38.3442   25.9915 O.2     1  UNL1       -0.2738
      5 H           9.7243   39.0887   26.7520 H       1  UNL1        0.1553
      6 C          10.9603   43.6111   19.8607 C.3     1  UNL1        0.0004
      7 C          10.5684   42.4750   20.8076 C.3     1  UNL1        0.0052
      8 C          11.3338   41.2038   20.4287 C.3     1  UNL1        0.0050
      9 C          10.7730   40.0089   21.2018 C.3     1  UNL1        0.0268
     10 C          10.7497   40.3521   22.6862 C.ar    1  UNL1       -0.0122
     11 C          10.8230   41.6340   23.1050 C.ar    1  UNL1        0.0047
     12 S          10.7626   41.5376   24.8716 S.2     1  UNL1       -0.0767
     13 C          10.6410   39.8190   25.0545 C.ar    1  UNL1        0.0864
     14 C          10.6560   39.3597   23.7440 C.ar    1  UNL1        0.0915
     15 C          10.9301   42.8588   22.2498 C.3     1  UNL1        0.0327
     16 C          10.5765   37.9297   23.4391 C.2     1  UNL1        0.3427
     17 O          11.1470   37.4835   22.4618 O.2     1  UNL1       -0.2448
     18 O           9.8705   37.1072   24.2417 O.3     1  UNL1       -0.4413
     19 C          10.4872   35.8409   24.5944 C.3     1  UNL1        0.2560
     20 S          12.9482   36.4483   28.0368 S.3     1  UNL1       -0.0658
     21 C          14.1177   37.5443   28.7689 C.ar    1  UNL1        0.1939
     22 N          15.1356   38.1155   28.1645 N.ar    1  UNL1       -0.1221
     23 N          15.7810   38.8568   28.9924 N.ar    1  UNL1       -0.1282
     24 C          15.2202   38.7979   30.1777 C.ar    1  UNL1        0.1670
     25 N          14.1357   37.9580   30.0702 N.ar    1  UNL1       -0.2862
     26 C          15.6659   39.5057   31.3968 C.ar    1  UNL1        0.0372
     27 C          14.8010   40.3840   32.0527 C.ar    1  UNL1        0.0031
     28 C          15.2175   41.0393   33.1933 C.ar    1  UNL1        0.0014
     29 C          16.4941   40.8385   33.6844 C.ar    1  UNL1        0.0145
     30 C          17.3628   39.9663   33.0389 C.ar    1  UNL1        0.0480
     31 C          16.9517   39.2985   31.8952 C.ar    1  UNL1        0.0176
     32 N          18.6497   39.7619   33.5427 N.pl3   1  UNL1       -0.3041
     33 C          19.5965   38.9159   32.8119 C.3     1  UNL1        0.1122
     34 C          19.0523   40.3934   34.8018 C.3     1  UNL1        0.1122
     35 C          13.1962   37.5853   31.1306 C.3     1  UNL1        0.1359
     36 C          12.1038   38.6196   31.2202 C.2     1  UNL1       -0.0017
     37 C          10.8475   38.2484   31.2055 C.2     1  UNL1       -0.0029
@<TRIPOS>BOND
     1     6     7    1
     2     7    15    1
     3     7     8    1
     4     8     9    1
     5     9    10    1
     6    10    14   ar
     7    10    11   ar
     8    11    12   ar
     9    11    15    1
    10    12    13   ar
    11    13    14   ar
    12    13     2    1
    13    14    16    1
    14    16    17    2
    15    16    18    1
    16    18    19    1
    17     2     3   am
    18     3     4    2
    19     3     1    1
    20     1    20    1
    21    20    21    1
    22    21    25   ar
    23    21    22   ar
    24    22    23   ar
    25    23    24   ar
    26    24    25   ar
    27    24    26    1
    28    25    35    1
    29    35    36    1
    30    36    37    2
    31    26    31   ar
    32    26    27   ar
    33    27    28   ar
    34    28    29   ar
    35    29    30   ar
    36    30    31   ar
    37    30    32    1
    38    32    33    1
    39    32    34    1
    40     2     5    1
@<TRIPOS>MOLECULE
ZINC15176792
 36 38 0 0 0
SMALL
GASTEIGER

@<TRIPOS>ATOM
      1 N          22.5495   38.6356   30.0115 N.am    1  UNL1       -0.3022
      2 C          23.4809   37.6693   30.1345 C.2     1  UNL1        0.2231
      3 O          23.1775   36.5085   29.9577 O.2     1  UNL1       -0.2751
      4 H          22.7958   39.5779   30.1550 H       1  UNL1        0.1497
      5 C          21.1704   38.2837   29.6643 C.3     1  UNL1        0.0940
      6 C          18.5476   39.5536   32.7878 C.ar    1  UNL1       -0.0222
      7 C          18.0370   38.9140   31.6738 C.ar    1  UNL1       -0.0045
      8 C          18.8857   38.5032   30.6630 C.ar    1  UNL1       -0.0030
      9 C          20.2450   38.7318   30.7661 C.ar    1  UNL1       -0.0045
     10 C          20.7563   39.3668   31.8826 C.ar    1  UNL1       -0.0030
     11 C          19.9070   39.7823   32.8910 C.ar    1  UNL1       -0.0045
     12 C          17.6224   40.0010   33.8900 C.3     1  UNL1        0.0264
     13 C          16.1921   39.5674   33.5628 C.3     1  UNL1        0.0047
     14 C          14.9676   40.6453   31.6704 C.3     1  UNL1        0.0000
     15 C          15.3735   40.7884   33.1386 C.3     1  UNL1        0.0003
     16 C          20.7808   38.9770   28.3574 C.3     1  UNL1        0.0222
     17 C          21.2416   38.1268   27.1718 C.3     1  UNL1        0.0020
     18 C          21.4498   40.3514   28.2900 C.3     1  UNL1        0.0020
     19 C          24.8995   38.0313   30.4916 C.3     1  UNL1        0.0929
     20 C          25.7963   37.8505   29.2651 C.3     1  UNL1        0.0735
     21 C          26.2244   36.4091   29.1641 C.ar    1  UNL1        0.1208
     22 N          26.3728   35.6030   30.1745 N.ar    1  UNL1       -0.2309
     23 C          26.7661   34.3817   29.7302 C.ar    1  UNL1        0.0997
     24 C          27.0632   33.1741   30.3676 C.ar    1  UNL1        0.0405
     25 C          27.4416   32.0894   29.6284 C.ar    1  UNL1        0.1238
     26 C          27.5358   32.1727   28.2464 C.ar    1  UNL1        0.0215
     27 C          27.2476   33.3536   27.5962 C.ar    1  UNL1        0.0201
     28 C          26.8610   34.4663   28.3310 C.ar    1  UNL1        0.0787
     29 N          26.5065   35.7596   28.0025 N.ar    1  UNL1       -0.3129
     30 C          26.4486   36.3280   26.6536 C.3     1  UNL1        0.1316
     31 S          27.8143   30.5695   30.4379 S.O2    1  UNL1        0.0634
     32 O          29.2311   30.4758   30.4936 O.2     1  UNL1       -0.1528
     33 O          27.0011   30.5193   31.6022 O.2     1  UNL1       -0.1528
     34 N          27.2978   29.3474   29.4468 N.3     1  UNL1       -0.1526
     35 C          25.8698   29.0341   29.3532 C.3     1  UNL1        0.1150
     36 C          28.2690   28.5796   28.6636 C.3     1  UNL1        0.1150
@<TRIPOS>BOND
     1    14    15    1
     2    15    13    1
     3    13    12    1
     4    12     6    1
     5     6    11   ar
     6     6     7   ar
     7     7     8   ar
     8     8     9   ar
     9     9    10   ar
    10     9     5    1
    11    10    11   ar
    12     5    16    1
    13     5     1    1
    14    16    17    1
    15    16    18    1
    16     1     2   am
    17     2     3    2
    18     2    19    1
    19    19    20    1
    20    20    21    1
    21    21    29   ar
    22    21    22   ar
    23    22    23   ar
    24    23    28   ar
    25    23    24   ar
    26    24    25   ar
    27    25    26   ar
    28    25    31    1
    29    26    27   ar
    30    27    28   ar
    31    28    29   ar
    32    29    30    1
    33    31    32    2
    34    31    33    2
    35    31    34    1
    36    34    35    1
    37    34    36    1
    38     1     4    1
@<TRIPOS>MOLECULE
ZINC24910967
 35 38 0 0 0
SMALL
GASTEIGER

@<TRIPOS>ATOM
      1 C          20.2702   38.6806   28.7864 C.3     1  UNL1        0.1501
      2 N          22.5711   38.7139   27.8790 N.am    1  UNL1       -0.2634
      3 C          21.4515   38.0087   28.1352 C.2     1  UNL1        0.2390
      4 O          21.3947   36.8333   27.8416 O.2     1  UNL1       -0.2738
      5 H          22.6172   39.6681   28.1173 H       1  UNL1        0.1568
      6 C          25.9147   36.9320   26.5138 C.ar    1  UNL1        0.0334
      7 C          24.9213   37.1344   25.6141 C.ar    1  UNL1        0.1034
      8 N          23.8108   37.7154   26.0241 N.ar    1  UNL1       -0.2227
      9 C          23.6607   38.0942   27.2784 C.ar    1  UNL1        0.1653
     10 S          25.1765   37.6271   27.9851 S.2     1  UNL1       -0.0554
     11 C          27.2701   36.3015   26.3239 C.3     1  UNL1        0.0609
     12 C          27.0878   32.6851   29.7784 C.3     1  UNL1        0.0310
     13 C          27.1106   33.1088   28.3323 C.ar    1  UNL1       -0.0222
     14 C          27.0650   32.1555   27.3319 C.ar    1  UNL1       -0.0043
     15 C          27.0856   32.5441   26.0057 C.ar    1  UNL1       -0.0006
     16 C          27.1476   33.8862   25.6794 C.ar    1  UNL1       -0.0039
     17 C          27.1981   34.8389   26.6795 C.ar    1  UNL1       -0.0175
     18 C          27.1767   34.4502   28.0061 C.ar    1  UNL1       -0.0082
     19 S          20.4715   38.6449   30.5848 S.3     1  UNL1       -0.0674
     20 C          18.7933   38.8416   31.0845 C.ar    1  UNL1        0.1739
     21 N          17.8482   38.5791   30.2159 N.ar    1  UNL1       -0.2224
     22 C          16.5436   38.7080   30.5305 C.ar    1  UNL1        0.0880
     23 C          15.5349   38.4274   29.6039 C.ar    1  UNL1        0.0193
     24 C          14.2253   38.5714   29.9658 C.ar    1  UNL1        0.0015
     25 C          13.8787   38.9940   31.2428 C.ar    1  UNL1        0.0003
     26 C          14.8425   39.2756   32.1712 C.ar    1  UNL1        0.0063
     27 C          16.1870   39.1370   31.8292 C.ar    1  UNL1        0.0739
     28 C          17.2645   39.4244   32.7856 C.ar    1  UNL1        0.2637
     29 O          17.0207   39.7960   33.9189 O.2     1  UNL1       -0.2669
     30 N          18.5385   39.2603   32.3593 N.ar    1  UNL1       -0.2750
     31 C          19.6518   39.5331   33.2716 C.3     1  UNL1        0.1198
     32 C          19.5376   38.6288   34.5005 C.3     1  UNL1        0.0273
     33 C          19.6045   40.9981   33.7103 C.3     1  UNL1        0.1648
     34 O          19.9738   41.0951   35.0874 O.3     1  UNL1       -0.3491
     35 C          19.0360   41.8135   35.8914 C.3     1  UNL1        0.1742
@<TRIPOS>BOND
     1    12    13    1
     2    13    18   ar
     3    13    14   ar
     4    14    15   ar
     5    15    16   ar
     6    16    17   ar
     7    17    18   ar
     8    17    11    1
     9    11     6    1
    10     6    10   ar
    11     6     7   ar
    12     7     8   ar
    13     8     9   ar
    14     9    10   ar
    15     9     2    1
    16     2     3   am
    17     3     4    2
    18     3     1    1
    19     1    19    1
    20    19    20    1
    21    20    30   ar
    22    20    21   ar
    23    21    22   ar
    24    22    27   ar
    25    22    23   ar
    26    23    24   ar
    27    24    25   ar
    28    25    26   ar
    29    26    27   ar
    30    27    28   ar
    31    28    29    2
    32    28    30   ar
    33    30    31    1
    34    31    32    1
    35    31    33    1
    36    33    34    1
    37    34    35    1
    38     2     5    1
@<TRIPOS>MOLECULE
ZINC14072945
 36 39 0 0 0
SMALL
GASTEIGER

@<TRIPOS>ATOM
      1 C          26.0868   40.5647   28.7486 C.ar    1  UNL1        0.1027
      2 C          27.4118   39.9898   28.4800 C.ar    1  UNL1       -0.0012
      3 C          27.2581   38.6565   28.4719 C.ar    1  UNL1        0.0351
      4 N          25.9433   38.3500   28.7039 N.ar    1  UNL1       -0.3150
      5 C          25.2214   39.4849   28.8768 C.ar    1  UNL1        0.1209
      6 C          28.3588   37.6539   28.2394 C.3     1  UNL1        0.0497
      7 C          28.6950   40.7492   28.2617 C.3     1  UNL1        0.0325
      8 N          23.8625   39.5555   29.1355 N.am    1  UNL1       -0.2674
      9 C          22.9871   39.6607   28.1161 C.2     1  UNL1        0.2718
     10 O          23.3766   39.5737   26.9710 O.2     1  UNL1       -0.2707
     11 H          23.5361   39.5287   30.0639 H       1  UNL1        0.1563
     12 C          21.5243   39.8865   28.3995 C.3     1  UNL1        0.2931
     13 O          21.1789   39.2800   29.6728 O.3     1  UNL1       -0.4343
     14 C          20.1602   38.3992   29.6741 C.2     1  UNL1        0.3596
     15 O          20.2368   37.3816   29.0164 O.2     1  UNL1       -0.2432
     16 C          18.9459   38.6720   30.4784 C.ar    1  UNL1        0.1566
     17 C          19.0854   39.0750   31.8151 C.ar    1  UNL1        0.0257
     18 C          17.9747   39.3345   32.5650 C.ar    1  UNL1        0.0033
     19 C          16.7124   39.1746   31.9634 C.ar    1  UNL1        0.0177
     20 C          15.5281   39.4177   32.6777 C.ar    1  UNL1        0.0015
     21 C          14.3248   39.2530   32.0628 C.ar    1  UNL1        0.0001
     22 C          14.2504   38.8446   30.7316 C.ar    1  UNL1        0.0015
     23 C          15.3757   38.5995   30.0084 C.ar    1  UNL1        0.0191
     24 C          16.6400   38.7589   30.6082 C.ar    1  UNL1        0.0815
     25 N          17.7585   38.5253   29.9229 N.ar    1  UNL1       -0.2388
     26 C          25.7474   41.9854   28.8587 C.2     1  UNL1        0.3436
     27 O          26.2300   42.6588   29.7492 O.2     1  UNL1       -0.2448
     28 O          24.8996   42.5468   27.9724 O.3     1  UNL1       -0.4454
     29 C          26.5968   43.4366   26.4697 C.3     1  UNL1        0.0513
     30 C          25.3284   42.5889   26.5858 C.3     1  UNL1        0.2089
     31 C          25.3970   36.9919   28.7629 C.3     1  UNL1        0.1400
     32 C          25.4799   36.4781   30.1772 C.ar    1  UNL1        0.0300
     33 C          24.6486   36.7147   31.2214 C.ar    1  UNL1        0.0046
     34 C          24.9261   36.1331   32.4442 C.ar    1  UNL1        0.0072
     35 C          26.0151   35.3343   32.5601 C.ar    1  UNL1        0.0352
     36 S          26.6936   35.3930   30.9099 S.2     1  UNL1       -0.0889
@<TRIPOS>BOND
     1    29    30    1
     2    30    28    1
     3    28    26    1
     4    26    27    2
     5    26     1    1
     6     1     5   ar
     7     1     2   ar
     8     2     3   ar
     9     2     7    1
    10     3     4   ar
    11     3     6    1
    12     4     5   ar
    13     4    31    1
    14     5     8    1
    15     8     9   am
    16     9    10    2
    17     9    12    1
    18    12    13    1
    19    13    14    1
    20    14    15    2
    21    14    16    1
    22    16    25   ar
    23    16    17   ar
    24    17    18   ar
    25    18    19   ar
    26    19    24   ar
    27    19    20   ar
    28    20    21   ar
    29    21    22   ar
    30    22    23   ar
    31    23    24   ar
    32    24    25   ar
    33    31    32    1
    34    32    36   ar
    35    32    33   ar
    36    33    34   ar
    37    34    35   ar
    38    35    36   ar
    39     8    11    1
@<TRIPOS>MOLECULE
ZINC00745516
 38 40 0 0 0
SMALL
GASTEIGER

@<TRIPOS>ATOM
      1 C          25.5480   36.9886   31.1229 C.2     1  UNL1        0.2475
      2 O          24.9807   35.9603   31.4260 O.2     1  UNL1       -0.2729
      3 N          26.7843   37.2410   31.5966 N.am    1  UNL1       -0.2679
      4 H          27.2448   38.0757   31.3505 H       1  UNL1        0.1563
      5 C          27.4112   36.3200   32.4351 C.ar    1  UNL1        0.1368
      6 C          27.4000   36.3322   33.7962 C.ar    1  UNL1        0.0509
      7 C          28.1434   35.2354   34.2412 C.ar    1  UNL1        0.0810
      8 N          28.5954   34.5891   33.1968 N.ar    1  UNL1       -0.1683
      9 N          28.1514   35.2473   32.0428 N.ar    1  UNL1       -0.2166
     10 C          28.4212   34.8690   30.7205 C.ar    1  UNL1        0.0799
     11 C          29.4134   35.5198   29.9994 C.ar    1  UNL1        0.0189
     12 C          29.6808   35.1410   28.6985 C.ar    1  UNL1        0.0012
     13 C          28.9534   34.1225   28.1100 C.ar    1  UNL1       -0.0045
     14 C          27.9610   33.4763   28.8237 C.ar    1  UNL1       -0.0244
     15 C          27.6931   33.8467   30.1273 C.ar    1  UNL1       -0.0080
     16 C          26.6119   33.1412   30.9047 C.3     1  UNL1        0.0323
     17 C          27.1712   32.3667   28.1789 C.3     1  UNL1        0.0307
     18 C          28.3887   34.8636   35.6809 C.3     1  UNL1        0.0372
     19 C          29.6881   34.0630   35.7866 C.3     1  UNL1        0.0060
     20 C          28.5032   36.1354   36.5236 C.3     1  UNL1        0.0060
     21 C          27.2236   34.0149   36.1941 C.3     1  UNL1        0.0060
     22 C          24.8730   37.9811   30.2117 C.3     1  UNL1        0.1797
     23 N          25.0267   37.5497   28.8202 N.am    1  UNL1       -0.2678
     24 C          24.0424   37.7832   27.9296 C.2     1  UNL1        0.2496
     25 O          24.1584   37.4014   26.7815 O.2     1  UNL1       -0.2699
     26 C          22.8213   38.5039   28.3493 C.ar    1  UNL1        0.0596
     27 C          21.7466   37.8007   28.8944 C.ar    1  UNL1        0.0416
     28 C          20.6067   38.4803   29.2910 C.ar    1  UNL1        0.1419
     29 C          20.5283   39.8567   29.1366 C.ar    1  UNL1        0.0738
     30 C          21.5924   40.5590   28.5898 C.ar    1  UNL1        0.1419
     31 C          22.7382   39.8880   28.1958 C.ar    1  UNL1        0.0416
     32 O          21.5105   41.9074   28.4407 O.3     1  UNL1       -0.4713
     33 C          22.7367   42.6403   28.4800 C.3     1  UNL1        0.2525
     34 O          19.5612   37.7969   29.8270 O.3     1  UNL1       -0.4713
     35 C          18.9510   38.3546   30.9927 C.3     1  UNL1        0.2525
     36 C          26.2503   36.8644   28.3966 C.3     1  UNL1        0.0942
     37 C          27.8035   37.6042   26.5847 C.3     1  UNL1        0.0018
     38 C          27.3039   37.9005   28.0002 C.3     1  UNL1        0.0215
@<TRIPOS>BOND
     1    37    38    1
     2    38    36    1
     3    36    23    1
     4    23    22    1
     5    23    24   am
     6    22     1    1
     7     1     2    2
     8     1     3   am
     9     3     5    1
    10     5     9   ar
    11     5     6   ar
    12     6     7   ar
    13     7     8   ar
    14     7    18    1
    15     8     9   ar
    16     9    10    1
    17    10    15   ar
    18    10    11   ar
    19    11    12   ar
    20    12    13   ar
    21    13    14   ar
    22    14    15   ar
    23    14    17    1
    24    15    16    1
    25    18    19    1
    26    18    20    1
    27    18    21    1
    28    24    25    2
    29    24    26    1
    30    26    31   ar
    31    26    27   ar
    32    27    28   ar
    33    28    29   ar
    34    28    34    1
    35    29    30   ar
    36    30    31   ar
    37    30    32    1
    38    32    33    1
    39    34    35    1
    40     3     4    1
@<TRIPOS>MOLECULE
ZINC10414882
 36 38 0 0 0
SMALL
GASTEIGER

@<TRIPOS>ATOM
      1 C          23.5712   42.9922   28.2013 C.2     1  UNL1        0.3418
      2 O          23.1262   44.1249   28.1945 O.2     1  UNL1       -0.2449
      3 C          22.8575   41.9561   28.8464 C.2     1  UNL1        0.0834
      4 C          22.4369   40.8809   28.1382 C.2     1  UNL1        0.0263
      5 C          21.6969   39.8069   28.8068 C.ar    1  UNL1        0.0900
      6 C          21.9335   38.4815   28.4881 C.ar    1  UNL1        0.0573
      7 S          20.8214   37.6659   29.5431 S.2     1  UNL1       -0.0503
      8 C          20.1243   39.1100   30.3274 C.ar    1  UNL1        0.1727
      9 N          20.7765   40.0869   29.7329 N.ar    1  UNL1       -0.2234
     10 N          19.1422   39.1842   31.3081 N.am    1  UNL1       -0.2169
     11 C          17.8535   38.9503   30.9903 C.2     1  UNL1        0.2350
     12 O          17.5623   38.5778   29.8734 O.2     1  UNL1       -0.2741
     13 C          16.7744   39.1516   32.0227 C.3     1  UNL1        0.0956
     14 C          19.4926   39.4964   32.6278 C.ar    1  UNL1        0.0599
     15 C          19.6815   40.8199   33.0030 C.ar    1  UNL1        0.0153
     16 C          20.0222   41.1248   34.3063 C.ar    1  UNL1        0.0013
     17 C          20.1851   40.1131   35.2347 C.ar    1  UNL1        0.0001
     18 C          20.0028   38.7937   34.8629 C.ar    1  UNL1        0.0013
     19 C          19.6574   38.4826   33.5624 C.ar    1  UNL1        0.0153
     20 O          24.7462   42.7250   27.5930 O.3     1  UNL1       -0.4397
     21 C          25.9153   42.7181   28.4145 C.3     1  UNL1        0.2447
     22 C          27.1467   43.0012   27.5517 C.3     1  UNL1        0.0575
     23 N          25.7696   40.2490   28.3792 N.am    1  UNL1       -0.2810
     24 C          26.0607   41.3690   29.0701 C.2     1  UNL1        0.2664
     25 O          26.4398   41.2911   30.2196 O.2     1  UNL1       -0.2709
     26 H          25.3941   40.3143   27.4714 H       1  UNL1        0.1550
     27 C          26.4583   36.5110   30.0847 C.ar    1  UNL1       -0.0224
     28 C          25.3855   37.2747   30.5065 C.ar    1  UNL1       -0.0030
     29 C          25.1545   38.5143   29.9431 C.ar    1  UNL1        0.0143
     30 C          26.0009   38.9935   28.9519 C.ar    1  UNL1        0.0504
     31 C          27.0741   38.2217   28.5265 C.ar    1  UNL1        0.0143
     32 C          27.3033   36.9855   29.0982 C.ar    1  UNL1       -0.0030
     33 C          26.7075   35.1588   30.7016 C.3     1  UNL1        0.0223
     34 C          25.4681   34.7187   31.4834 C.3     1  UNL1        0.0047
     35 C          27.2432   32.7657   30.2234 C.3     1  UNL1        0.0003
     36 C          27.0022   34.1411   29.5979 C.3     1  UNL1        0.0044
@<TRIPOS>BOND
     1    35    36    1
     2    36    33    1
     3    33    34    1
     4    33    27    1
     5    27    32   ar
     6    27    28   ar
     7    28    29   ar
     8    29    30   ar
     9    30    31   ar
    10    30    23    1
    11    31    32   ar
    12    23    24   am
    13    24    25    2
    14    24    21    1
    15    21    22    1
    16    21    20    1
    17    20     1    1
    18     1     2    2
    19     1     3    1
    20     3     4    2
    21     4     5    1
    22     5     9   ar
    23     5     6   ar
    24     6     7   ar
    25     7     8   ar
    26     8     9   ar
    27     8    10    1
    28    10    14    1
    29    10    11   am
    30    14    19   ar
    31    14    15   ar
    32    15    16   ar
    33    16    17   ar
    34    17    18   ar
    35    18    19   ar
    36    11    12    2
    37    11    13    1
    38    23    26    1
@<TRIPOS>MOLECULE
ZINC11459371
 37 39 0 0 0
SMALL
GASTEIGER

@<TRIPOS>ATOM
      1 C          12.0498   38.0142   30.1368 C.2     1  UNL1        0.3515
      2 O          11.3996   37.7170   31.1204 O.2     1  UNL1       -0.2441
      3 C          14.0719   39.0998   31.0453 C.2     1  UNL1        0.0180
      4 C          13.5095   38.1350   30.2310 C.2     1  UNL1        0.1439
      5 C          19.0523   38.7621   30.2738 C.3     1  UNL1        0.0504
      6 C          17.6949   38.9714   30.8940 C.ar    1  UNL1        0.0414
      7 C          16.5194   38.8190   30.2624 C.ar    1  UNL1        0.0142
      8 C          15.4741   39.1249   31.2500 C.ar    1  UNL1        0.0140
      9 C          16.1417   39.4484   32.4206 C.ar    1  UNL1        0.0414
     10 N          17.4651   39.3456   32.1891 N.ar    1  UNL1       -0.3135
     11 C          15.4995   39.8428   33.7255 C.3     1  UNL1        0.0504
     12 C          18.4653   39.5930   33.1399 C.ar    1  UNL1        0.0635
     13 C          19.0375   38.5377   33.8374 C.ar    1  UNL1        0.0198
     14 C          20.0264   38.7828   34.7698 C.ar    1  UNL1        0.0311
     15 C          20.4395   40.0814   35.0172 C.ar    1  UNL1        0.1402
     16 C          19.8661   41.1357   34.3262 C.ar    1  UNL1        0.0311
     17 C          18.8807   40.8941   33.3893 C.ar    1  UNL1        0.0198
     18 F          21.4027   40.3199   35.9339 F       1  UNL1       -0.2042
     19 C          14.3509   37.2533   29.4793 C.1     1  UNL1        0.1070
     20 N          15.0184   36.5538   28.8829 N.1     1  UNL1       -0.1906
     21 O          11.4297   38.2327   28.9593 O.3     1  UNL1       -0.4348
     22 C          11.6526   37.2584   27.9061 C.3     1  UNL1        0.2927
     23 C          11.7608   37.9671   26.5807 C.2     1  UNL1        0.2674
     24 O          12.8242   38.0060   25.9989 O.2     1  UNL1       -0.2711
     25 N          10.6759   38.5578   26.0418 N.am    1  UNL1       -0.2964
     26 H           9.8126   38.5262   26.5140 H       1  UNL1        0.1499
     27 C          10.7811   39.2468   24.7531 C.3     1  UNL1        0.1339
     28 C           9.8233   38.6237   23.7706 C.2     1  UNL1        0.1690
     29 O           8.6865   38.3875   24.1025 O.2     1  UNL1       -0.2943
     30 C          10.2841   38.2953   22.3739 C.3     1  UNL1        0.0741
     31 C          10.4342   40.7257   24.9357 C.3     1  UNL1        0.0535
     32 C          10.8409   41.4929   23.7041 C.ar    1  UNL1       -0.0201
     33 C          12.1596   41.4859   23.2895 C.ar    1  UNL1       -0.0042
     34 C          12.5316   42.1850   22.1565 C.ar    1  UNL1       -0.0003
     35 C          11.5860   42.8956   21.4411 C.ar    1  UNL1       -0.0000
     36 C          10.2682   42.9069   21.8587 C.ar    1  UNL1       -0.0003
     37 C           9.8962   42.2078   22.9916 C.ar    1  UNL1       -0.0042
@<TRIPOS>BOND
     1     5     6    1
     2     6    10   ar
     3     6     7   ar
     4     7     8   ar
     5     8     9   ar
     6     8     3    1
     7     9    10   ar
     8     9    11    1
     9    10    12    1
    10    12    17   ar
    11    12    13   ar
    12    13    14   ar
    13    14    15   ar
    14    15    16   ar
    15    15    18    1
    16    16    17   ar
    17     3     4    2
    18     4    19    1
    19     4     1    1
    20    19    20    3
    21     1     2    2
    22     1    21    1
    23    21    22    1
    24    22    23    1
    25    23    24    2
    26    23    25   am
    27    25    27    1
    28    27    31    1
    29    27    28    1
    30    31    32    1
    31    32    37   ar
    32    32    33   ar
    33    33    34   ar
    34    34    35   ar
    35    35    36   ar
    36    36    37   ar
    37    28    29    2
    38    28    30    1
    39    25    26    1
@<TRIPOS>MOLECULE
ZINC12639621
 34 38 0 0 0
SMALL
GASTEIGER

@<TRIPOS>ATOM
      1 S          15.6855   37.9449   29.1239 S.3     1  UNL1       -0.0850
      2 C          14.9410   38.6742   30.5447 C.ar    1  UNL1        0.1100
      3 C          15.7146   39.1756   31.6320 C.ar    1  UNL1        0.0436
      4 C          17.1628   39.1727   31.7533 C.ar    1  UNL1       -0.0162
      5 C          17.6780   39.7053   32.8848 C.ar    1  UNL1        0.0048
      6 S          16.2739   40.2334   33.8344 S.2     1  UNL1       -0.0726
      7 C          15.0003   39.7404   32.7184 C.ar    1  UNL1        0.1133
      8 N          13.6847   39.8167   32.7591 N.ar    1  UNL1       -0.2242
      9 C          13.0245   39.3310   31.7145 C.ar    1  UNL1        0.1398
     10 N          13.6197   38.7915   30.6700 N.ar    1  UNL1       -0.2245
     11 C          19.1244   39.8231   33.2548 C.3     1  UNL1        0.0327
     12 C          19.9405   38.9136   32.3253 C.3     1  UNL1        0.0052
     13 C          19.4913   39.1596   30.8819 C.3     1  UNL1        0.0050
     14 C          18.0823   38.6040   30.6755 C.3     1  UNL1        0.0267
     15 C          21.4289   39.2386   32.4661 C.3     1  UNL1        0.0004
     16 C          11.5191   39.3999   31.7242 C.3     1  UNL1        0.0587
     17 C          10.7576   38.3230   30.9487 C.3     1  UNL1        0.0080
     18 C          10.8196   39.7537   30.4103 C.3     1  UNL1        0.0080
     19 C          14.4393   36.6952   28.7227 C.3     1  UNL1        0.1487
     20 N          12.2450   37.1184   27.6619 N.am    1  UNL1       -0.2634
     21 C          13.5887   37.1833   27.5784 C.2     1  UNL1        0.2389
     22 O          14.1132   37.6346   26.5823 O.2     1  UNL1       -0.2738
     23 H          11.8192   36.7522   28.4704 H       1  UNL1        0.1568
     24 C          10.5282   39.0529   25.1207 C.ar    1  UNL1        0.0787
     25 C           9.8503   38.0252   24.5535 C.ar    1  UNL1        0.0534
     26 S          10.4114   36.6610   25.5621 S.2     1  UNL1       -0.0512
     27 C          11.4606   37.5686   26.6064 C.ar    1  UNL1        0.1652
     28 N          11.3179   38.7958   26.1449 N.ar    1  UNL1       -0.2277
     29 C          10.3775   40.4580   24.5971 C.3     1  UNL1        0.1557
     30 C          11.1041   40.5850   23.2830 C.2     1  UNL1        0.3231
     31 O          12.3120   40.5783   23.2574 O.2     1  UNL1       -0.2497
     32 O          10.4092   40.7055   22.1409 O.3     1  UNL1       -0.4482
     33 C          10.7584   42.8722   21.0854 C.3     1  UNL1        0.0513
     34 C          11.0699   41.3752   21.0348 C.3     1  UNL1        0.2086
@<TRIPOS>BOND
     1    33    34    1
     2    34    32    1
     3    32    30    1
     4    30    31    2
     5    30    29    1
     6    29    24    1
     7    24    28   ar
     8    24    25   ar
     9    25    26   ar
    10    26    27   ar
    11    27    28   ar
    12    27    20    1
    13    20    21   am
    14    21    22    2
    15    21    19    1
    16    19     1    1
    17     1     2    1
    18     2    10   ar
    19     2     3   ar
    20     3     7   ar
    21     3     4   ar
    22     4    14    1
    23     4     5   ar
    24     5     6   ar
    25     5    11    1
    26     6     7   ar
    27     7     8   ar
    28     8     9   ar
    29     9    10   ar
    30     9    16    1
    31    16    18    1
    32    16    17    1
    33    17    18    1
    34    11    12    1
    35    12    13    1
    36    12    15    1
    37    13    14    1
    38    20    23    1
@<TRIPOS>MOLECULE
ZINC08451325
 34 36 0 0 0
SMALL
GASTEIGER

@<TRIPOS>ATOM
      1 C          22.3525   38.1059   28.3008 C.ar    1  UNL1        0.0239
      2 C          22.4031   39.2456   27.4941 C.ar    1  UNL1        0.0049
      3 C          23.5035   40.0755   27.5416 C.ar    1  UNL1        0.0401
      4 C          24.5664   39.7760   28.3812 C.ar    1  UNL1        0.1727
      5 C          24.5229   38.6415   29.1883 C.ar    1  UNL1        0.1724
      6 C          23.4210   37.8076   29.1502 C.ar    1  UNL1        0.0416
      7 N          20.3221   37.2244   29.2354 N.2     1  UNL1       -0.1786
      8 C          21.1745   37.2206   28.2561 C.2     1  UNL1        0.1176
      9 N          20.1829   38.3639   30.0385 N.pl3   1  UNL1       -0.2193
     10 H          20.9561   38.9527   30.1958 H       1  UNL1        0.1760
     11 C          15.4317   38.5809   29.5646 C.3     1  UNL1        0.0521
     12 C          16.6612   38.7782   30.4135 C.ar    1  UNL1        0.0606
     13 C          16.5239   39.2411   31.7103 C.ar    1  UNL1        0.0137
     14 C          17.6511   39.4228   32.4922 C.ar    1  UNL1        0.0208
     15 C          18.9010   39.1283   31.9356 C.ar    1  UNL1        0.0997
     16 C          18.9590   38.6617   30.6104 C.ar    1  UNL1        0.1562
     17 N          17.8480   38.5112   29.9050 N.ar    1  UNL1       -0.2329
     18 C          20.0989   39.2992   32.7014 C.1     1  UNL1        0.1030
     19 N          21.0491   39.4348   33.3090 N.1     1  UNL1       -0.1907
     20 C          17.5356   39.9251   33.9083 C.3     1  UNL1        0.1695
     21 O          17.8241   41.3243   33.9424 O.3     1  UNL1       -0.3463
     22 C          18.7226   41.7071   34.9855 C.3     1  UNL1        0.1746
     23 O          25.5650   38.3539   30.0135 O.3     1  UNL1       -0.4684
     24 C          25.8027   36.9745   30.3017 C.3     1  UNL1        0.2526
     25 O          25.6509   40.5950   28.4205 O.3     1  UNL1       -0.4676
     26 C          25.6989   41.5578   29.4754 C.3     1  UNL1        0.2322
     27 C          25.4786   42.9363   28.9078 C.ar    1  UNL1        0.0221
     28 C          24.3561   43.6597   29.2658 C.ar    1  UNL1        0.0002
     29 C          24.1500   44.9217   28.7414 C.ar    1  UNL1        0.0120
     30 C          25.0673   45.4619   27.8579 C.ar    1  UNL1        0.0682
     31 C          26.1914   44.7376   27.4995 C.ar    1  UNL1        0.0680
     32 C          26.3961   43.4745   28.0253 C.ar    1  UNL1        0.0116
     33 CL         27.3438   45.4144   26.3914 Cl      1  UNL1       -0.0814
     34 CL         24.8092   47.0474   27.1994 Cl      1  UNL1       -0.0814
@<TRIPOS>BOND
     1    11    12    1
     2    12    17   ar
     3    12    13   ar
     4    13    14   ar
     5    14    15   ar
     6    14    20    1
     7    15    16   ar
     8    15    18    1
     9    16    17   ar
    10    16     9    1
    11     9     7    1
    12     7     8    2
    13     8     1    1
    14     1     6   ar
    15     1     2   ar
    16     2     3   ar
    17     3     4   ar
    18     4     5   ar
    19     4    25    1
    20     5     6   ar
    21     5    23    1
    22    23    24    1
    23    25    26    1
    24    26    27    1
    25    27    32   ar
    26    27    28   ar
    27    28    29   ar
    28    29    30   ar
    29    30    31   ar
    30    30    34    1
    31    31    32   ar
    32    31    33    1
    33    18    19    3
    34    20    21    1
    35    21    22    1
    36     9    10    1
@<TRIPOS>MOLECULE
ZINC01835362
 35 38 0 0 0
SMALL
GASTEIGER

@<TRIPOS>ATOM
      1 S          23.4341   38.3780   30.0309 S.3     1  UNL1       -0.0768
      2 C          24.9817   37.5957   30.3427 C.ar    1  UNL1        0.1603
      3 N          26.2028   38.0307   30.0976 N.ar    1  UNL1       -0.1339
      4 N          27.2866   37.2492   30.4254 N.ar    1  UNL1       -0.1339
      5 C          27.0995   36.0685   30.9833 C.ar    1  UNL1        0.1602
      6 S          25.3171   36.0046   31.0825 S.2     1  UNL1       -0.0330
      7 S          28.2898   34.8765   31.4998 S.3     1  UNL1       -0.0818
      8 C          27.3407   33.3360   31.6286 C.3     1  UNL1        0.0904
      9 C          27.2508   32.6865   30.2717 C.ar    1  UNL1       -0.0109
     10 C          27.4904   33.4151   29.1471 C.ar    1  UNL1       -0.0034
     11 C          27.4187   32.8304   27.8845 C.ar    1  UNL1       -0.0003
     12 C          27.0942   31.5164   27.7381 C.ar    1  UNL1       -0.0000
     13 C          26.8339   30.7338   28.8755 C.ar    1  UNL1       -0.0003
     14 C          26.9134   31.3271   30.1604 C.ar    1  UNL1       -0.0031
     15 C          26.6524   30.5442   31.2980 C.ar    1  UNL1       -0.0003
     16 C          26.3277   29.2307   31.1515 C.ar    1  UNL1       -0.0000
     17 C          26.2491   28.6475   29.8880 C.ar    1  UNL1       -0.0000
     18 C          26.4951   29.3743   28.7641 C.ar    1  UNL1       -0.0000
     19 C          22.6588   37.3300   28.7695 C.3     1  UNL1        0.1506
     20 N          20.6087   38.1659   29.8725 N.am    1  UNL1       -0.2051
     21 C          21.1601   37.3992   28.9109 C.2     1  UNL1        0.2525
     22 O          20.4502   36.7610   28.1625 O.2     1  UNL1       -0.2724
     23 H          21.1850   38.6808   30.4825 H       1  UNL1        0.1773
     24 C          18.6867   38.8324   31.0256 C.2     1  UNL1        0.1176
     25 N          19.2153   38.2303   30.0039 N.2     1  UNL1       -0.1776
     26 C          14.4724   39.0274   31.4232 C.ar    1  UNL1        0.0756
     27 C          15.2934   39.4042   32.4905 C.ar    1  UNL1        0.0065
     28 C          16.6518   39.3417   32.3626 C.ar    1  UNL1        0.0018
     29 C          17.2217   38.9001   31.1638 C.ar    1  UNL1        0.0207
     30 C          16.4002   38.5282   30.0945 C.ar    1  UNL1        0.0018
     31 C          15.0419   38.5864   30.2246 C.ar    1  UNL1        0.0065
     32 C          13.0051   39.0955   31.5615 C.2     1  UNL1        0.3413
     33 O          12.4743   40.1355   31.8972 O.2     1  UNL1       -0.2449
     34 C          10.9615   38.2212   30.6898 C.3     1  UNL1        0.2560
     35 O          12.2538   38.0044   31.3154 O.3     1  UNL1       -0.4413
@<TRIPOS>BOND
     1    34    35    1
     2    35    32    1
     3    32    33    2
     4    32    26    1
     5    26    31   ar
     6    26    27   ar
     7    27    28   ar
     8    28    29   ar
     9    29    30   ar
    10    29    24    1
    11    30    31   ar
    12    24    25    2
    13    25    20    1
    14    20    21   am
    15    21    22    2
    16    21    19    1
    17    19     1    1
    18     1     2    1
    19     2     6   ar
    20     2     3   ar
    21     3     4   ar
    22     4     5   ar
    23     5     6   ar
    24     5     7    1
    25     7     8    1
    26     8     9    1
    27     9    14   ar
    28     9    10   ar
    29    10    11   ar
    30    11    12   ar
    31    12    13   ar
    32    13    18   ar
    33    13    14   ar
    34    14    15   ar
    35    15    16   ar
    36    16    17   ar
    37    17    18   ar
    38    20    23    1
@<TRIPOS>MOLECULE
ZINC02819334
 33 35 0 0 0
SMALL
GASTEIGER

@<TRIPOS>ATOM
      1 C          10.5429   39.8368   25.6662 C.3     1  UNL1        0.1772
      2 N           9.7788   40.0844   24.4409 N.pl3   1  UNL1       -0.3253
      3 H           8.8022   39.9603   24.4363 H       1  UNL1        0.1473
      4 C          11.9917   43.6391   21.8679 C.3     1  UNL1        0.0311
      5 C          11.5197   42.2145   22.0044 C.ar    1  UNL1       -0.0206
      6 C          11.7370   41.3134   20.9780 C.ar    1  UNL1       -0.0045
      7 C          11.3051   40.0055   21.0989 C.ar    1  UNL1       -0.0034
      8 C          10.6554   39.5945   22.2464 C.ar    1  UNL1       -0.0087
      9 C          10.4360   40.4966   23.2794 C.ar    1  UNL1        0.0406
     10 C          10.8666   41.8115   23.1523 C.ar    1  UNL1        0.0097
     11 C          10.1847   38.1688   22.3772 C.3     1  UNL1        0.0323
     12 C          10.7583   38.3547   25.8330 C.2     1  UNL1        0.3358
     13 O           9.8799   37.5795   25.5374 O.2     1  UNL1       -0.2482
     14 O          11.9260   37.8957   26.3100 O.3     1  UNL1       -0.4388
     15 C          11.9333   37.4084   27.6778 C.3     1  UNL1        0.2766
     16 C          13.3535   37.1523   28.1122 C.2     1  UNL1        0.2170
     17 O          14.0388   36.3565   27.5058 O.2     1  UNL1       -0.2874
     18 C          13.9084   37.8674   29.2717 C.ar    1  UNL1        0.0385
     19 C          13.1069   38.1227   30.3894 C.ar    1  UNL1        0.0035
     20 C          13.6357   38.7875   31.4749 C.ar    1  UNL1        0.0068
     21 C          14.9536   39.2138   31.4557 C.ar    1  UNL1        0.0346
     22 C          15.7516   38.9699   30.3499 C.ar    1  UNL1        0.0068
     23 C          15.2386   38.3005   29.2598 C.ar    1  UNL1        0.0035
     24 BR         15.6671   40.1325   32.9466 Br      1  UNL1       -0.0490
     25 C           9.7673   40.3781   26.8689 C.3     1  UNL1        0.1001
     26 C           9.9798   41.8662   26.9752 C.2     1  UNL1        0.1753
     27 O          10.3038   42.5039   25.9961 O.2     1  UNL1       -0.2913
     28 C           9.7940   42.5456   28.2674 C.ar    1  UNL1        0.0348
     29 C          10.2229   43.8661   28.4354 C.ar    1  UNL1        0.0028
     30 C          10.0402   44.4975   29.6475 C.ar    1  UNL1        0.0001
     31 C           9.4450   43.8240   30.7000 C.ar    1  UNL1        0.0000
     32 C           9.0231   42.5152   30.5434 C.ar    1  UNL1        0.0001
     33 C           9.1931   41.8720   29.3356 C.ar    1  UNL1        0.0028
@<TRIPOS>BOND
     1     4     5    1
     2     5    10   ar
     3     5     6   ar
     4     6     7   ar
     5     7     8   ar
     6     8     9   ar
     7     8    11    1
     8     9    10   ar
     9     9     2    1
    10     2     1    1
    11     1    25    1
    12     1    12    1
    13    25    26    1
    14    26    27    2
    15    26    28    1
    16    28    33   ar
    17    28    29   ar
    18    29    30   ar
    19    30    31   ar
    20    31    32   ar
    21    32    33   ar
    22    12    13    2
    23    12    14    1
    24    14    15    1
    25    15    16    1
    26    16    17    2
    27    16    18    1
    28    18    23   ar
    29    18    19   ar
    30    19    20   ar
    31    20    21   ar
    32    21    22   ar
    33    21    24    1
    34    22    23   ar
    35     2     3    1
@<TRIPOS>MOLECULE
ZINC04210025
 38 41 0 0 0
SMALL
GASTEIGER

@<TRIPOS>ATOM
      1 C          12.2050   37.9660   26.6349 C.2     1  UNL1        0.1175
      2 N          12.7122   38.7650   25.7467 N.2     1  UNL1       -0.1796
      3 C          13.6655   38.0233   30.6209 C.ar    1  UNL1        0.1488
      4 C          12.2965   38.0273   30.3848 C.ar    1  UNL1        0.0377
      5 C          11.8180   38.0144   29.0926 C.ar    1  UNL1        0.0047
      6 C          12.7121   37.9855   28.0190 C.ar    1  UNL1        0.0209
      7 C          14.0884   37.9757   28.2613 C.ar    1  UNL1        0.0047
      8 C          14.5579   37.9946   29.5567 C.ar    1  UNL1        0.0377
      9 O          14.1328   38.0417   31.8963 O.3     1  UNL1       -0.4210
     10 C          14.6775   39.1877   32.3547 C.2     1  UNL1        0.3459
     11 O          14.1145   40.2485   32.1616 O.2     1  UNL1       -0.2445
     12 C          16.7126   40.2617   33.1521 C.2     1  UNL1        0.0067
     13 C          15.9445   39.1546   33.0836 C.2     1  UNL1        0.0823
     14 C          20.3877   40.1651   35.2680 C.ar    1  UNL1        0.0000
     15 C          19.6074   41.3078   35.2956 C.ar    1  UNL1        0.0000
     16 C          18.4115   41.3471   34.6105 C.ar    1  UNL1        0.0000
     17 C          17.9879   40.2284   33.8859 C.ar    1  UNL1        0.0002
     18 C          18.7798   39.0758   33.8669 C.ar    1  UNL1        0.0000
     19 C          19.9757   39.0541   34.5529 C.ar    1  UNL1        0.0000
     20 N          12.2303   38.7465   24.4314 N.am    1  UNL1       -0.2291
     21 C          11.3672   39.6949   24.0165 C.2     1  UNL1        0.1558
     22 O          11.0077   40.5645   24.7820 O.2     1  UNL1       -0.3057
     23 H          12.5221   38.0407   23.8101 H       1  UNL1        0.1747
     24 C          10.8488   39.6749   22.6016 C.2     1  UNL1        0.0985
     25 O          10.0278   38.5209   22.4114 O.3     1  UNL1       -0.6103
     26 C           9.7852   37.7494   23.5035 C.ar    1  UNL1        0.1075
     27 C           8.8001   38.1167   24.4087 C.ar    1  UNL1        0.0342
     28 C           8.5519   37.3279   25.5153 C.ar    1  UNL1        0.0030
     29 C           9.2913   36.1789   25.7268 C.ar    1  UNL1        0.0002
     30 C          10.2775   35.8137   24.8291 C.ar    1  UNL1        0.0030
     31 C          10.5262   36.5963   23.7182 C.ar    1  UNL1        0.0342
     32 O          10.0773   40.8533   22.3603 O.3     1  UNL1       -0.6103
     33 C          10.5982   41.7661   21.4986 C.ar    1  UNL1        0.1075
     34 C          11.4939   41.3641   20.5185 C.ar    1  UNL1        0.0342
     35 C          12.0179   42.2930   19.6404 C.ar    1  UNL1        0.0030
     36 C          11.6583   43.6241   19.7445 C.ar    1  UNL1        0.0002
     37 C          10.7701   44.0281   20.7241 C.ar    1  UNL1        0.0030
     38 C          10.2393   43.1022   21.6012 C.ar    1  UNL1        0.0342
@<TRIPOS>UNITY_ATOM_ATTR
24 1
charge -1
@<TRIPOS>BOND
     1    14    19   ar
     2    14    15   ar
     3    15    16   ar
     4    16    17   ar
     5    17    18   ar
     6    17    12    1
     7    18    19   ar
     8    12    13    2
     9    13    10    1
    10    10    11    2
    11    10     9    1
    12     9     3    1
    13     3     8   ar
    14     3     4   ar
    15     4     5   ar
    16     5     6   ar
    17     6     7   ar
    18     6     1    1
    19     7     8   ar
    20     1     2    2
    21     2    20    1
    22    20    21   am
    23    21    22    2
    24    21    24    1
    25    24    25    1
    26    24    32    1
    27    25    26    1
    28    26    31   ar
    29    26    27   ar
    30    27    28   ar
    31    28    29   ar
    32    29    30   ar
    33    30    31   ar
    34    32    33    1
    35    33    38   ar
    36    33    34   ar
    37    34    35   ar
    38    35    36   ar
    39    36    37   ar
    40    37    38   ar
    41    20    23    1
@<TRIPOS>MOLECULE
ZINC06134646
 38 41 0 0 0
SMALL
GASTEIGER

@<TRIPOS>ATOM
      1 N          23.2637   39.6374   27.8731 N.am    1  UNL1       -0.2439
      2 C          22.0328   39.2971   28.3038 C.2     1  UNL1        0.2568
      3 O          21.0788   39.9918   28.0237 O.2     1  UNL1       -0.2723
      4 C          24.3653   38.8353   28.1966 C.ar    1  UNL1        0.0821
      5 C          25.1002   39.0935   29.3455 C.ar    1  UNL1        0.0172
      6 C          26.1861   38.3005   29.6624 C.ar    1  UNL1        0.0014
      7 C          26.5420   37.2495   28.8372 C.ar    1  UNL1        0.0024
      8 C          25.8131   36.9882   27.6917 C.ar    1  UNL1        0.0309
      9 C          24.7218   37.7751   27.3706 C.ar    1  UNL1        0.1537
     10 F          24.0062   37.5167   26.2544 F       1  UNL1       -0.2029
     11 C          23.4494   40.8463   27.0666 C.3     1  UNL1        0.1846
     12 C          23.8532   41.9898   27.9611 C.ar    1  UNL1        0.0344
     13 C          25.0533   42.2377   28.5405 C.ar    1  UNL1        0.0048
     14 C          25.1972   43.3640   29.3288 C.ar    1  UNL1        0.0072
     15 C          24.1310   44.1817   29.5077 C.ar    1  UNL1        0.0352
     16 S          22.8730   43.3655   28.5389 S.2     1  UNL1       -0.0887
     17 N          24.2031   40.1391   24.8193 N.am    1  UNL1       -0.3027
     18 C          24.5275   40.6054   26.0415 C.2     1  UNL1        0.2457
     19 O          25.6869   40.8313   26.3163 O.2     1  UNL1       -0.2729
     20 H          23.2619   39.9558   24.5962 H       1  UNL1        0.1495
     21 C          25.2512   39.9051   23.8227 C.3     1  UNL1        0.0894
     22 C          24.9598   40.7360   22.5715 C.3     1  UNL1        0.0212
     23 C          22.6412   40.9364   21.6621 C.3     1  UNL1        0.0001
     24 C          23.8804   40.0420   21.7384 C.3     1  UNL1        0.0017
     25 C          24.4118   39.7856   20.3267 C.3     1  UNL1        0.0001
     26 C          21.8418   38.0537   29.1335 C.3     1  UNL1        0.2361
     27 N          20.8470   38.3114   30.1777 N.ar    1  UNL1       -0.1414
     28 N          21.0069   39.1057   31.1798 N.ar    1  UNL1       -0.1292
     29 C          19.9020   39.0763   31.8981 C.ar    1  UNL1        0.2080
     30 N          19.0668   38.2269   31.2834 N.ar    1  UNL1       -0.1077
     31 N          19.6742   37.7839   30.2353 N.ar    1  UNL1       -0.0446
     32 C          19.6346   39.8363   33.1448 C.ar    1  UNL1        0.0668
     33 C          20.6120   39.9243   34.1333 C.ar    1  UNL1        0.0054
     34 C          20.3601   40.6361   35.2886 C.ar    1  UNL1        0.0002
     35 C          19.1355   41.2534   35.4719 C.ar    1  UNL1        0.0023
     36 C          18.1584   41.1661   34.4978 C.ar    1  UNL1        0.0297
     37 C          18.4012   40.4601   33.3337 C.ar    1  UNL1        0.1431
     38 F          17.4462   40.3745   32.3819 F       1  UNL1       -0.2041
@<TRIPOS>BOND
     1    23    24    1
     2    24    25    1
     3    24    22    1
     4    22    21    1
     5    21    17    1
     6    17    18   am
     7    18    19    2
     8    18    11    1
     9    11    12    1
    10    11     1    1
    11    12    16   ar
    12    12    13   ar
    13    13    14   ar
    14    14    15   ar
    15    15    16   ar
    16     1     4    1
    17     1     2   am
    18     4     9   ar
    19     4     5   ar
    20     5     6   ar
    21     6     7   ar
    22     7     8   ar
    23     8     9   ar
    24     9    10    1
    25     2     3    2
    26     2    26    1
    27    26    27    1
    28    27    31   ar
    29    27    28   ar
    30    28    29   ar
    31    29    30   ar
    32    29    32    1
    33    30    31   ar
    34    32    37   ar
    35    32    33   ar
    36    33    34   ar
    37    34    35   ar
    38    35    36   ar
    39    36    37   ar
    40    37    38    1
    41    17    20    1
@<TRIPOS>MOLECULE
ZINC22034194
 36 38 0 0 0
SMALL
GASTEIGER

@<TRIPOS>ATOM
      1 C          25.6943   37.3112   26.7764 C.ar    1  UNL1        0.1885
      2 N          24.8913   37.1445   25.7639 N.ar    1  UNL1       -0.1290
      3 N          23.8133   37.8222   25.9395 N.ar    1  UNL1       -0.1223
      4 C          23.8690   38.4594   27.0860 C.ar    1  UNL1        0.1937
      5 N          25.0736   38.1573   27.6534 N.ar    1  UNL1       -0.2866
      6 C          27.0554   36.6876   26.9487 C.3     1  UNL1        0.2703
      7 O          27.0339   35.3505   26.4451 O.3     1  UNL1       -0.4676
      8 C          26.9243   33.9311   31.1137 C.3     1  UNL1        0.0311
      9 C          27.0084   33.6151   29.6426 C.ar    1  UNL1       -0.0189
     10 C          27.1112   32.3014   29.2229 C.ar    1  UNL1       -0.0044
     11 C          27.1888   32.0083   27.8742 C.ar    1  UNL1       -0.0016
     12 C          27.1572   33.0272   26.9416 C.ar    1  UNL1        0.0115
     13 C          27.0594   34.3460   27.3601 C.ar    1  UNL1        0.1348
     14 C          26.9821   34.6377   28.7145 C.ar    1  UNL1        0.0323
     15 C          27.2352   32.7065   25.4712 C.3     1  UNL1        0.0253
     16 C          28.7020   32.6371   25.0415 C.3     1  UNL1        0.0048
     17 C          26.5620   31.3582   25.2069 C.3     1  UNL1        0.0048
     18 C          25.5910   38.6352   28.9379 C.3     1  UNL1        0.1357
     19 C          25.1766   37.6845   30.0313 C.2     1  UNL1       -0.0017
     20 C          26.0523   37.2881   30.9214 C.2     1  UNL1       -0.0029
     21 S          22.6258   39.5087   27.7628 S.3     1  UNL1       -0.0672
     22 C          21.3173   38.2941   28.0608 C.3     1  UNL1        0.1312
     23 C          21.9357   36.9965   28.5849 C.3     1  UNL1        0.0218
     24 C          20.3503   38.8376   29.0808 C.2     1  UNL1        0.2362
     25 O          20.4427   39.9888   29.4510 O.2     1  UNL1       -0.2739
     26 N          19.3827   38.0443   29.5817 N.am    1  UNL1       -0.2832
     27 H          19.2583   37.1350   29.2256 H       1  UNL1        0.1549
     28 C          18.5586   38.5111   30.6034 C.ar    1  UNL1        0.0503
     29 C          17.1998   38.7006   30.3671 C.ar    1  UNL1        0.0148
     30 C          16.3843   39.1551   31.3709 C.ar    1  UNL1        0.0041
     31 C          16.9220   39.4392   32.6326 C.ar    1  UNL1        0.0348
     32 C          18.2906   39.2520   32.8641 C.ar    1  UNL1        0.0041
     33 C          19.0975   38.7921   31.8560 C.ar    1  UNL1        0.0148
     34 C          16.0534   39.9313   33.7095 C.2     1  UNL1        0.1735
     35 O          15.6060   39.1572   34.5293 O.2     1  UNL1       -0.2913
     36 C          15.7180   41.3979   33.7963 C.3     1  UNL1        0.0773
@<TRIPOS>BOND
     1     8     9    1
     2     9    14   ar
     3     9    10   ar
     4    10    11   ar
     5    11    12   ar
     6    12    13   ar
     7    12    15    1
     8    13    14   ar
     9    13     7    1
    10     7     6    1
    11     6     1    1
    12     1     5   ar
    13     1     2   ar
    14     2     3   ar
    15     3     4   ar
    16     4     5   ar
    17     4    21    1
    18     5    18    1
    19    18    19    1
    20    19    20    2
    21    21    22    1
    22    22    23    1
    23    22    24    1
    24    24    25    2
    25    24    26   am
    26    26    28    1
    27    28    33   ar
    28    28    29   ar
    29    29    30   ar
    30    30    31   ar
    31    31    32   ar
    32    31    34    1
    33    32    33   ar
    34    34    35    2
    35    34    36    1
    36    15    16    1
    37    15    17    1
    38    26    27    1
@<TRIPOS>MOLECULE
ZINC14403746
 39 42 0 0 0
SMALL
GASTEIGER

@<TRIPOS>ATOM
      1 N          16.3904   39.4933   32.7186 N.am    1  UNL1       -0.1998
      2 C          17.6895   39.6433   32.5176 C.2     1  UNL1        0.2446
      3 O          18.4373   40.0300   33.3902 O.2     1  UNL1       -0.2734
      4 C          18.1853   39.3003   31.1221 C.3     1  UNL1        0.1446
      5 S          16.6082   38.8006   30.3247 S.3     1  UNL1       -0.0200
      6 C          15.5364   39.0537   31.7314 C.2     1  UNL1        0.3169
      7 N          14.2372   38.8653   31.8065 N.2     1  UNL1       -0.1846
      8 H          13.7617   39.0446   32.6496 H       1  UNL1        0.4554
      9 C          13.5485   38.4214   30.7166 C.ar    1  UNL1        0.2251
     10 C          14.2411   37.9345   29.6015 C.ar    1  UNL1        0.0694
     11 C          13.5520   37.4858   28.5130 C.ar    1  UNL1        0.0125
     12 C          12.1525   37.5224   28.5068 C.ar    1  UNL1        0.0760
     13 C          11.4599   38.0142   29.6197 C.ar    1  UNL1        0.0125
     14 C          12.1489   38.4579   30.7103 C.ar    1  UNL1        0.0694
     15 C          11.4088   37.0431   27.3299 C.2     1  UNL1        0.3412
     16 O          11.0102   35.8957   27.2888 O.2     1  UNL1       -0.2449
     17 O          11.1700   37.8769   26.2981 O.3     1  UNL1       -0.4454
     18 C          10.4480   37.3308   25.1629 C.3     1  UNL1        0.2089
     19 C           9.3251   38.2902   24.7632 C.3     1  UNL1        0.0513
     20 C          15.5670   41.3073   34.1374 C.3     1  UNL1        0.0239
     21 C          15.8405   39.8051   34.0402 C.3     1  UNL1        0.1044
     22 C          19.1808   38.1390   31.1574 C.3     1  UNL1        0.1059
     23 C          20.2135   38.3295   30.0764 C.2     1  UNL1        0.2275
     24 O          19.9294   38.1020   28.9195 O.2     1  UNL1       -0.2747
     25 N          21.4527   38.7527   30.3954 N.am    1  UNL1       -0.2838
     26 H          21.6601   39.0152   31.3213 H       1  UNL1        0.1549
     27 C          22.4445   38.8190   29.4106 C.ar    1  UNL1        0.0534
     28 C          23.1847   37.6873   29.0918 C.ar    1  UNL1        0.0149
     29 C          24.1635   37.7524   28.1193 C.ar    1  UNL1        0.0044
     30 C          24.4090   38.9426   27.4609 C.ar    1  UNL1        0.0376
     31 C          23.6727   40.0763   27.7752 C.ar    1  UNL1        0.1465
     32 C          22.6859   40.0134   28.7471 C.ar    1  UNL1        0.0521
     33 O          23.9152   41.2458   27.1271 O.3     1  UNL1       -0.4535
     34 C          24.1629   42.3513   27.8774 C.ar    1  UNL1        0.1453
     35 C          23.1752   43.3106   28.0486 C.ar    1  UNL1        0.0375
     36 C          23.4275   44.4306   28.8169 C.ar    1  UNL1        0.0031
     37 C          24.6672   44.6020   29.4050 C.ar    1  UNL1        0.0002
     38 C          25.6551   43.6503   29.2312 C.ar    1  UNL1        0.0031
     39 C          25.4059   42.5256   28.4689 C.ar    1  UNL1        0.0375
@<TRIPOS>UNITY_ATOM_ATTR
7 1
charge 1
@<TRIPOS>BOND
     1    20    21    1
     2    21     1    1
     3     1     6    1
     4     1     2   am
     5     2     3    2
     6     2     4    1
     7     4     5    1
     8     4    22    1
     9     5     6    1
    10     6     7    2
    11     7     9    1
    12     9    14   ar
    13     9    10   ar
    14    10    11   ar
    15    11    12   ar
    16    12    13   ar
    17    12    15    1
    18    13    14   ar
    19    15    16    2
    20    15    17    1
    21    17    18    1
    22    18    19    1
    23    22    23    1
    24    23    24    2
    25    23    25   am
    26    25    27    1
    27    27    32   ar
    28    27    28   ar
    29    28    29   ar
    30    29    30   ar
    31    30    31   ar
    32    31    32   ar
    33    31    33    1
    34    33    34    1
    35    34    39   ar
    36    34    35   ar
    37    35    36   ar
    38    36    37   ar
    39    37    38   ar
    40    38    39   ar
    41     7     8    1
    42    25    26    1
@<TRIPOS>MOLECULE
ZINC24182388
 36 38 0 0 0
SMALL
GASTEIGER

@<TRIPOS>ATOM
      1 C          23.2786   39.1090   27.6596 C.3     1  UNL1        0.2444
      2 C          23.1987   40.6194   27.8903 C.3     1  UNL1        0.0575
      3 N          24.8581   37.4104   28.5192 N.am    1  UNL1       -0.2953
      4 C          24.6725   38.6267   27.9691 C.2     1  UNL1        0.2632
      5 O          25.6272   39.3331   27.7232 O.2     1  UNL1       -0.2712
      6 H          24.0830   36.8370   28.7187 H       1  UNL1        0.1501
      7 C          26.2129   36.9415   28.8201 C.3     1  UNL1        0.1230
      8 C          26.4339   35.0665   34.2817 C.3     1  UNL1        0.0310
      9 C          26.3763   35.5556   32.8574 C.ar    1  UNL1       -0.0219
     10 C          27.5284   35.9882   32.2281 C.ar    1  UNL1       -0.0045
     11 C          27.4757   36.4363   30.9214 C.ar    1  UNL1       -0.0027
     12 C          26.2706   36.4525   30.2444 C.ar    1  UNL1        0.0002
     13 C          25.1173   36.0253   30.8756 C.ar    1  UNL1       -0.0027
     14 C          25.1711   35.5721   32.1806 C.ar    1  UNL1       -0.0045
     15 C          26.5732   35.8142   27.8870 C.ar    1  UNL1        0.0292
     16 C          26.9204   34.5381   28.1841 C.ar    1  UNL1        0.0046
     17 C          27.2124   33.6655   27.1525 C.ar    1  UNL1        0.0072
     18 C          27.1427   34.1116   25.8745 C.ar    1  UNL1        0.0352
     19 S          26.6457   35.8110   26.1032 S.2     1  UNL1       -0.0888
     20 O          22.3446   38.4465   28.5145 O.3     1  UNL1       -0.4397
     21 C          21.0352   38.5979   28.2252 C.2     1  UNL1        0.3418
     22 O          20.6209   38.3191   27.1156 O.2     1  UNL1       -0.2449
     23 C          20.1436   39.0814   29.2126 C.2     1  UNL1        0.0820
     24 C          19.7267   38.2635   30.2066 C.2     1  UNL1        0.0098
     25 C          18.8030   38.7645   31.2296 C.ar    1  UNL1        0.0374
     26 C          19.2944   39.2082   32.4650 C.ar    1  UNL1        0.0431
     27 C          18.4212   39.6777   33.4230 C.ar    1  UNL1        0.1726
     28 C          17.0495   39.7124   33.1653 C.ar    1  UNL1        0.1754
     29 C          16.5553   39.2703   31.9479 C.ar    1  UNL1        0.0769
     30 C          17.4217   38.8012   30.9757 C.ar    1  UNL1        0.1419
     31 O          16.9376   38.3729   29.7821 O.3     1  UNL1       -0.4713
     32 C          15.5461   38.5828   29.5333 C.3     1  UNL1        0.2525
     33 O          16.1950   40.1761   34.1134 O.3     1  UNL1       -0.4683
     34 C          15.6318   41.4722   33.9013 C.3     1  UNL1        0.2526
     35 O          18.8973   40.1085   34.6225 O.3     1  UNL1       -0.4684
     36 C          19.4873   41.4096   34.6567 C.3     1  UNL1        0.2526
@<TRIPOS>BOND
     1     8     9    1
     2     9    14   ar
     3     9    10   ar
     4    10    11   ar
     5    11    12   ar
     6    12    13   ar
     7    12     7    1
     8    13    14   ar
     9     7    15    1
    10     7     3    1
    11    15    19   ar
    12    15    16   ar
    13    16    17   ar
    14    17    18   ar
    15    18    19   ar
    16     3     4   am
    17     4     5    2
    18     4     1    1
    19     1     2    1
    20     1    20    1
    21    20    21    1
    22    21    22    2
    23    21    23    1
    24    23    24    2
    25    24    25    1
    26    25    30   ar
    27    25    26   ar
    28    26    27   ar
    29    27    28   ar
    30    27    35    1
    31    28    29   ar
    32    28    33    1
    33    29    30   ar
    34    30    31    1
    35    31    32    1
    36    33    34    1
    37    35    36    1
    38     3     6    1
@<TRIPOS>MOLECULE
ZINC06190760
 35 37 0 0 0
SMALL
GASTEIGER

@<TRIPOS>ATOM
      1 N          25.0298   39.8958   27.9660 N.3     1  UNL1       -0.1458
      2 S          25.4194   38.3100   27.6905 S.O2    1  UNL1        0.0637
      3 O          24.3269   37.7405   26.9824 O.2     1  UNL1       -0.1528
      4 O          26.7458   38.3004   27.1807 O.2     1  UNL1       -0.1528
      5 C          25.4765   37.5077   29.2581 C.ar    1  UNL1        0.1222
      6 C          24.3071   37.2724   29.9569 C.ar    1  UNL1        0.0204
      7 C          24.3509   36.6387   31.1845 C.ar    1  UNL1        0.0081
      8 C          25.5660   36.2496   31.7187 C.ar    1  UNL1        0.0346
      9 C          26.7362   36.4900   31.0217 C.ar    1  UNL1        0.0081
     10 C          26.6911   37.1189   29.7917 C.ar    1  UNL1        0.0204
     11 BR         25.6272   35.3885   33.4013 Br      1  UNL1       -0.0490
     12 C          23.9436   40.5250   27.2108 C.3     1  UNL1        0.1821
     13 N          22.0228   39.5279   28.4088 N.am    1  UNL1       -0.2047
     14 C          22.7213   40.6343   28.0856 C.2     1  UNL1        0.2592
     15 O          22.3660   41.7182   28.4987 O.2     1  UNL1       -0.2718
     16 H          22.3111   38.6483   28.0733 H       1  UNL1        0.1773
     17 C          20.8868   39.0990   30.4062 C.2     1  UNL1        0.1176
     18 N          20.8866   39.6296   29.2220 N.2     1  UNL1       -0.1776
     19 C          17.4441   39.4080   32.8694 C.ar    1  UNL1       -0.0225
     20 C          17.3306   38.8969   31.5885 C.ar    1  UNL1       -0.0042
     21 C          18.4444   38.7981   30.7808 C.ar    1  UNL1        0.0013
     22 C          19.6906   39.2059   31.2623 C.ar    1  UNL1        0.0207
     23 C          19.7984   39.7160   32.5582 C.ar    1  UNL1        0.0013
     24 C          18.6754   39.8135   33.3531 C.ar    1  UNL1       -0.0042
     25 C          14.9791   39.1451   32.9328 C.3     1  UNL1        0.0047
     26 C          16.2217   39.5177   33.7440 C.3     1  UNL1        0.0224
     27 C          16.0864   40.9540   34.2535 C.3     1  UNL1        0.0047
     28 C          25.7713   40.6693   28.9650 C.3     1  UNL1        0.1010
     29 C          26.6820   41.6752   28.2583 C.3     1  UNL1        0.0455
     30 C          26.0940   43.0574   28.3804 C.ar    1  UNL1       -0.0207
     31 C          25.3489   43.3956   29.4945 C.ar    1  UNL1       -0.0042
     32 C          24.8137   44.6650   29.6089 C.ar    1  UNL1       -0.0003
     33 C          25.0152   45.5931   28.6044 C.ar    1  UNL1       -0.0000
     34 C          25.7556   45.2531   27.4876 C.ar    1  UNL1       -0.0003
     35 C          26.2952   43.9854   27.3757 C.ar    1  UNL1       -0.0042
@<TRIPOS>BOND
     1    25    26    1
     2    26    27    1
     3    26    19    1
     4    19    24   ar
     5    19    20   ar
     6    20    21   ar
     7    21    22   ar
     8    22    23   ar
     9    22    17    1
    10    23    24   ar
    11    17    18    2
    12    18    13    1
    13    13    14   am
    14    14    15    2
    15    14    12    1
    16    12     1    1
    17     1    28    1
    18     1     2    1
    19    28    29    1
    20    29    30    1
    21    30    35   ar
    22    30    31   ar
    23    31    32   ar
    24    32    33   ar
    25    33    34   ar
    26    34    35   ar
    27     2     3    2
    28     2     4    2
    29     2     5    1
    30     5    10   ar
    31     5     6   ar
    32     6     7   ar
    33     7     8   ar
    34     8     9   ar
    35     8    11    1
    36     9    10   ar
    37    13    16    1
@<TRIPOS>MOLECULE
ZINC03052282
 37 40 0 0 0
SMALL
GASTEIGER

@<TRIPOS>ATOM
      1 C          25.7534   35.9374   30.8190 C.ar    1  UNL1        0.0771
      2 C          26.7449   36.0266   29.8332 C.ar    1  UNL1        0.0067
      3 C          26.6341   36.9301   28.8157 C.ar    1  UNL1        0.0065
      4 C          25.5255   37.7737   28.7532 C.ar    1  UNL1        0.0739
      5 C          24.5161   37.6965   29.7391 C.ar    1  UNL1        0.0882
      6 C          24.6405   36.7676   30.7761 C.ar    1  UNL1        0.0258
      7 N          23.4487   38.5252   29.6571 N.ar    1  UNL1       -0.2224
      8 C          23.3298   39.3964   28.6858 C.ar    1  UNL1        0.1739
      9 N          24.2548   39.5332   27.6906 N.ar    1  UNL1       -0.2753
     10 C          25.3659   38.7613   27.6740 C.ar    1  UNL1        0.2637
     11 O          26.2005   38.8762   26.7957 O.2     1  UNL1       -0.2669
     12 C          25.8924   34.9514   31.9135 C.2     1  UNL1        0.3414
     13 O          26.0856   33.7807   31.6551 O.2     1  UNL1       -0.2449
     14 C          26.6627   34.6816   34.1566 C.3     1  UNL1        0.2560
     15 O          25.8050   35.3525   33.1962 O.3     1  UNL1       -0.4413
     16 C          24.0454   40.5280   26.6358 C.3     1  UNL1        0.1153
     17 C          25.2710   41.4393   26.5436 C.3     1  UNL1        0.0463
     18 C          25.1029   42.6042   27.4847 C.2     1  UNL1       -0.0466
     19 C          23.9092   43.0709   27.6658 C.2     1  UNL1       -0.0345
     20 C          23.5866   44.2301   28.5625 C.3     1  UNL1        0.0254
     21 C          24.7475   44.4909   29.5248 C.3     1  UNL1        0.0050
     22 C          26.0476   44.5471   28.7128 C.3     1  UNL1        0.0047
     23 C          26.3291   43.1473   28.1582 C.3     1  UNL1        0.0218
     24 S          21.9067   40.4349   28.6584 S.3     1  UNL1       -0.0674
     25 C          20.6743   39.2631   28.0384 C.3     1  UNL1        0.1497
     26 C          20.1229   38.4591   29.1875 C.2     1  UNL1        0.2339
     27 O          20.0846   37.2490   29.1177 O.2     1  UNL1       -0.2741
     28 N          19.6775   39.0847   30.2952 N.am    1  UNL1       -0.3033
     29 H          19.7123   40.0669   30.3535 H       1  UNL1        0.1495
     30 C          19.1414   38.3031   31.4123 C.3     1  UNL1        0.0941
     31 C          18.0801   39.1247   32.1467 C.3     1  UNL1        0.0476
     32 C          18.7022   39.7913   33.3466 C.ar    1  UNL1       -0.0205
     33 C          18.1915   40.9874   33.8150 C.ar    1  UNL1       -0.0042
     34 C          18.7590   41.5964   34.9186 C.ar    1  UNL1       -0.0003
     35 C          19.8436   41.0143   35.5477 C.ar    1  UNL1       -0.0000
     36 C          20.3579   39.8210   35.0759 C.ar    1  UNL1       -0.0003
     37 C          19.7870   39.2095   33.9754 C.ar    1  UNL1       -0.0042
@<TRIPOS>BOND
     1    14    15    1
     2    15    12    1
     3    12    13    2
     4    12     1    1
     5     1     6   ar
     6     1     2   ar
     7     2     3   ar
     8     3     4   ar
     9     4    10   ar
    10     4     5   ar
    11     5     6   ar
    12     5     7   ar
    13     7     8   ar
    14     8     9   ar
    15     8    24    1
    16     9    10   ar
    17     9    16    1
    18    10    11    2
    19    16    17    1
    20    17    18    1
    21    18    23    1
    22    18    19    2
    23    19    20    1
    24    20    21    1
    25    21    22    1
    26    22    23    1
    27    24    25    1
    28    25    26    1
    29    26    27    2
    30    26    28   am
    31    28    30    1
    32    30    31    1
    33    31    32    1
    34    32    37   ar
    35    32    33   ar
    36    33    34   ar
    37    34    35   ar
    38    35    36   ar
    39    36    37   ar
    40    28    29    1
@<TRIPOS>MOLECULE
ZINC03310742
 35 37 0 0 0
SMALL
GASTEIGER

@<TRIPOS>ATOM
      1 C          24.7070   46.0488   28.0988 C.3     1  UNL1        0.2927
      2 N          23.5844   48.1587   27.4614 N.am    1  UNL1       -0.3010
      3 C          24.5514   47.2547   27.2084 C.2     1  UNL1        0.2672
      4 O          25.2963   47.4116   26.2643 O.2     1  UNL1       -0.2711
      5 H          22.9797   48.0314   28.2278 H       1  UNL1        0.1496
      6 C          23.4331   49.3310   26.5958 C.3     1  UNL1        0.0938
      7 C          22.4898   50.3366   27.2593 C.3     1  UNL1        0.0427
      8 C          21.9107   51.2501   26.2100 C.ar    1  UNL1       -0.0102
      9 C          21.1274   50.7298   25.1968 C.ar    1  UNL1       -0.0025
     10 C          20.5960   51.5670   24.2341 C.ar    1  UNL1        0.0111
     11 C          20.8482   52.9266   24.2837 C.ar    1  UNL1        0.0585
     12 C          21.6319   53.4478   25.2972 C.ar    1  UNL1        0.0225
     13 C          22.1586   52.6101   26.2640 C.ar    1  UNL1        0.0546
     14 CL         23.1361   53.2643   27.5408 Cl      1  UNL1       -0.0825
     15 CL         20.1807   53.9781   23.0744 Cl      1  UNL1       -0.0822
     16 C          21.3576   49.5859   27.9632 C.3     1  UNL1        0.0061
     17 C          19.0295   49.9840   28.7781 C.3     1  UNL1        0.0000
     18 C          20.4283   50.5902   28.6479 C.3     1  UNL1        0.0004
     19 O          24.0149   44.9178   27.5068 O.3     1  UNL1       -0.4342
     20 C          24.2001   43.7159   28.0866 C.2     1  UNL1        0.3613
     21 O          24.3257   43.6359   29.2922 O.2     1  UNL1       -0.2431
     22 C          24.2506   42.4949   27.2560 C.ar    1  UNL1        0.1764
     23 C          25.0325   42.4759   26.0755 C.ar    1  UNL1        0.0324
     24 C          25.0544   41.3318   25.3347 C.ar    1  UNL1        0.0640
     25 C          24.2977   40.2310   25.7944 C.ar    1  UNL1        0.2768
     26 O          24.2913   39.1854   25.1666 O.2     1  UNL1       -0.2655
     27 N          23.5799   40.3454   26.9274 N.ar    1  UNL1       -0.2119
     28 N          23.5691   41.4296   27.6150 N.ar    1  UNL1       -0.1599
     29 C          22.7944   39.1994   27.3919 C.3     1  UNL1        0.1571
     30 C          23.5094   38.5315   28.5381 C.ar    1  UNL1        0.0022
     31 C          24.8227   38.1256   28.3911 C.ar    1  UNL1       -0.0023
     32 C          25.4803   37.5182   29.4443 C.ar    1  UNL1       -0.0003
     33 C          24.8232   37.3118   30.6428 C.ar    1  UNL1       -0.0000
     34 C          23.5083   37.7129   30.7881 C.ar    1  UNL1       -0.0003
     35 C          22.8506   38.3204   29.7349 C.ar    1  UNL1       -0.0023
@<TRIPOS>BOND
     1    17    18    1
     2    18    16    1
     3    16     7    1
     4     7     6    1
     5     7     8    1
     6     6     2    1
     7     2     3   am
     8     3     4    2
     9     3     1    1
    10     1    19    1
    11    19    20    1
    12    20    21    2
    13    20    22    1
    14    22    28   ar
    15    22    23   ar
    16    23    24   ar
    17    24    25   ar
    18    25    26    2
    19    25    27   ar
    20    27    28   ar
    21    27    29    1
    22    29    30    1
    23    30    35   ar
    24    30    31   ar
    25    31    32   ar
    26    32    33   ar
    27    33    34   ar
    28    34    35   ar
    29     8    13   ar
    30     8     9   ar
    31     9    10   ar
    32    10    11   ar
    33    11    12   ar
    34    11    15    1
    35    12    13   ar
    36    13    14    1
    37     2     5    1
@<TRIPOS>MOLECULE
ZINC16118951
 36 39 0 0 0
SMALL
GASTEIGER

@<TRIPOS>ATOM
      1 C          10.2478   41.0732   24.9655 C.ar    1  UNL1        0.1090
      2 C           9.9793   39.8650   25.7528 C.ar    1  UNL1        0.1140
      3 C           9.7885   40.2830   27.0545 C.ar    1  UNL1        0.1084
      4 N           9.9324   41.6191   27.0833 N.ar    1  UNL1       -0.2280
      5 N          10.2133   42.0895   25.7975 N.ar    1  UNL1       -0.1648
      6 C          10.6565   43.7295   20.7583 C.3     1  UNL1        0.0310
      7 C          10.7102   42.4091   21.4828 C.ar    1  UNL1       -0.0218
      8 C          11.0080   41.2511   20.7866 C.ar    1  UNL1       -0.0043
      9 C          11.0590   40.0359   21.4450 C.ar    1  UNL1       -0.0003
     10 C          10.8185   39.9727   22.8027 C.ar    1  UNL1        0.0015
     11 C          10.5128   41.1352   23.5082 C.ar    1  UNL1        0.0193
     12 C          10.4628   42.3575   22.8392 C.ar    1  UNL1       -0.0027
     13 C           9.8189   42.4185   28.2282 C.ar    1  UNL1        0.0829
     14 C          10.3323   43.7088   28.2294 C.ar    1  UNL1        0.0191
     15 C          10.2134   44.4966   29.3576 C.ar    1  UNL1        0.0015
     16 C           9.5947   43.9974   30.4892 C.ar    1  UNL1        0.0001
     17 C           9.0876   42.7110   30.4930 C.ar    1  UNL1        0.0015
     18 C           9.1979   41.9203   29.3659 C.ar    1  UNL1        0.0191
     19 C           9.9221   38.4822   25.2535 C.2     1  UNL1        0.3447
     20 O           8.8772   38.0337   24.8243 O.2     1  UNL1       -0.2448
     21 O          11.0285   37.7126   25.2724 O.3     1  UNL1       -0.4368
     22 C          12.0309   38.0240   26.2757 C.3     1  UNL1        0.2775
     23 C          11.7782   37.1987   27.5111 C.2     1  UNL1        0.2229
     24 O          11.2309   36.1186   27.4184 O.2     1  UNL1       -0.2869
     25 C          12.1779   37.6815   28.7767 C.ar    1  UNL1        0.0676
     26 C          11.3923   38.0261   29.8722 C.ar    1  UNL1        0.0096
     27 C          12.0454   38.4717   30.9909 C.ar    1  UNL1        0.0028
     28 C          13.4038   38.5551   30.9793 C.ar    1  UNL1        0.0091
     29 S          13.8222   38.0012   29.3908 S.2     1  UNL1       -0.0882
     30 C          14.3225   39.0124   32.0829 C.3     1  UNL1        0.0542
     31 C          15.4342   39.8826   31.4932 C.3     1  UNL1        0.0946
     32 N          16.7279   39.4513   32.0286 N.am    1  UNL1       -0.3040
     33 C          17.6192   38.8382   31.2247 C.2     1  UNL1        0.2230
     34 O          17.3504   38.6436   30.0582 O.2     1  UNL1       -0.2751
     35 C          18.9500   38.3945   31.7755 C.3     1  UNL1        0.0946
     36 H          16.9461   39.6093   32.9755 H       1  UNL1        0.1494
@<TRIPOS>BOND
     1     6     7    1
     2     7    12   ar
     3     7     8   ar
     4     8     9   ar
     5     9    10   ar
     6    10    11   ar
     7    11    12   ar
     8    11     1    1
     9     1     5   ar
    10     1     2   ar
    11     2     3   ar
    12     2    19    1
    13     3     4   ar
    14     4     5   ar
    15     4    13    1
    16    13    18   ar
    17    13    14   ar
    18    14    15   ar
    19    15    16   ar
    20    16    17   ar
    21    17    18   ar
    22    19    20    2
    23    19    21    1
    24    21    22    1
    25    22    23    1
    26    23    24    2
    27    23    25    1
    28    25    29   ar
    29    25    26   ar
    30    26    27   ar
    31    27    28   ar
    32    28    29   ar
    33    28    30    1
    34    30    31    1
    35    31    32    1
    36    32    33   am
    37    33    34    2
    38    33    35    1
    39    32    36    1
@<TRIPOS>MOLECULE
ZINC01595125
 31 33 0 0 0
SMALL
GASTEIGER

@<TRIPOS>ATOM
      1 C          16.0254   40.3350   32.9218 C.ar    1  UNL1        0.0591
      2 C          17.1923   39.8601   32.3280 C.ar    1  UNL1        0.0193
      3 C          17.1075   39.0145   31.2293 C.ar    1  UNL1        0.0576
      4 C          15.8142   38.6619   30.7648 C.ar    1  UNL1        0.0221
      5 C          15.6409   37.8098   29.6667 C.ar    1  UNL1        0.0016
      6 C          14.3824   37.4940   29.2505 C.ar    1  UNL1        0.0001
      7 C          13.2642   38.0082   29.9039 C.ar    1  UNL1        0.0015
      8 C          13.3966   38.8385   30.9737 C.ar    1  UNL1        0.0191
      9 C          14.6804   39.1870   31.4322 C.ar    1  UNL1        0.0810
     10 N          14.8386   39.9998   32.4804 N.ar    1  UNL1       -0.2497
     11 C          18.3238   38.4944   30.5698 C.2     1  UNL1        0.2646
     12 O          19.0007   37.6489   31.1224 O.2     1  UNL1       -0.2684
     13 N          18.6857   38.9615   29.3584 N.am    1  UNL1       -0.2023
     14 H          18.1399   39.6491   28.9128 H       1  UNL1        0.1776
     15 N          19.8385   38.4686   28.7334 N.2     1  UNL1       -0.1773
     16 C          20.7867   39.2836   28.3846 C.2     1  UNL1        0.1176
     17 C          22.0001   38.7648   27.7267 C.ar    1  UNL1        0.0223
     18 C          21.8980   38.0409   26.5360 C.ar    1  UNL1        0.0017
     19 C          23.0371   37.5587   25.9264 C.ar    1  UNL1        0.0018
     20 C          24.2792   37.7904   26.4911 C.ar    1  UNL1        0.0241
     21 C          24.3879   38.5063   27.6699 C.ar    1  UNL1        0.1429
     22 C          23.2575   38.9996   28.2879 C.ar    1  UNL1        0.0257
     23 N          25.7208   38.7493   28.2660 N.pl3   1  UNL1        0.0577
     24 O          25.8602   38.7267   29.4758 O.2     1  UNL1       -0.1261
     25 O          26.6781   38.9720   27.5466 O.2     1  UNL1       -0.1261
     26 C          16.1311   41.2564   34.1096 C.3     1  UNL1        0.0458
     27 C          17.3195   40.8359   34.9769 C.3     1  UNL1        0.0063
     28 C          18.5511   41.6551   34.5861 C.3     1  UNL1        0.0004
     29 C          19.7463   41.2153   35.4340 C.3     1  UNL1        0.0000
     30 C          20.5968   39.5043   33.8242 C.3     1  UNL1        0.0000
     31 C          20.0035   39.7227   35.2175 C.3     1  UNL1        0.0000
@<TRIPOS>BOND
     1    30    31    1
     2    31    29    1
     3    29    28    1
     4    28    27    1
     5    27    26    1
     6    26     1    1
     7     1    10   ar
     8     1     2   ar
     9     2     3   ar
    10     3     4   ar
    11     3    11    1
    12     4     9   ar
    13     4     5   ar
    14     5     6   ar
    15     6     7   ar
    16     7     8   ar
    17     8     9   ar
    18     9    10   ar
    19    11    12    2
    20    11    13   am
    21    13    15    1
    22    15    16    2
    23    16    17    1
    24    17    22   ar
    25    17    18   ar
    26    18    19   ar
    27    19    20   ar
    28    20    21   ar
    29    21    22   ar
    30    21    23    1
    31    23    24    2
    32    23    25    2
    33    13    14    1
@<TRIPOS>MOLECULE
ZINC26980320
 29 30 0 0 0
SMALL
GASTEIGER

@<TRIPOS>ATOM
      1 C          26.3897   35.5820   29.8259 C.ar    1  UNL1       -0.0122
      2 C          26.0949   35.0204   31.0117 C.ar    1  UNL1        0.0051
      3 S          24.7648   36.0326   31.6258 S.2     1  UNL1       -0.0767
      4 C          24.6246   37.1538   30.3138 C.ar    1  UNL1        0.0864
      5 C          25.6114   36.7318   29.4290 C.ar    1  UNL1        0.0915
      6 C          26.7391   33.8254   31.6660 C.3     1  UNL1        0.0379
      7 N          23.7462   38.2176   30.1802 N.am    1  UNL1       -0.2772
      8 C          22.5285   38.0217   29.6366 C.2     1  UNL1        0.2496
      9 O          22.2015   36.9147   29.2644 O.2     1  UNL1       -0.2726
     10 H          24.0117   39.1161   30.4823 H       1  UNL1        0.1554
     11 C          21.5733   39.1782   29.4913 C.3     1  UNL1        0.1933
     12 N          20.4750   39.0278   30.4489 N.ar    1  UNL1       -0.2978
     13 C          20.5361   39.2557   31.7972 C.ar    1  UNL1        0.1219
     14 C          19.3111   38.9951   32.2924 C.ar    1  UNL1        0.2429
     15 N          18.5215   38.6260   31.2730 N.ar    1  UNL1       -0.2007
     16 C          19.2119   38.6433   30.1657 C.ar    1  UNL1        0.1807
     17 N          18.9056   39.1032   33.7120 N.pl3   1  UNL1        0.0774
     18 O          19.6881   38.7972   34.5938 O.2     1  UNL1       -0.1245
     19 O          17.7912   39.5028   33.9983 O.2     1  UNL1       -0.1245
     20 C          25.8496   37.4196   28.1584 C.2     1  UNL1        0.3426
     21 O          26.7842   38.1904   28.0500 O.2     1  UNL1       -0.2448
     22 O          25.0326   37.1983   27.1082 O.3     1  UNL1       -0.4454
     23 C          24.4756   38.3659   26.4488 C.3     1  UNL1        0.2089
     24 C          23.1174   38.0091   25.8414 C.3     1  UNL1        0.0513
     25 C          27.4854   35.0344   28.9481 C.3     1  UNL1        0.0268
     26 C          26.8900   34.0389   27.9504 C.3     1  UNL1        0.0044
     27 C          27.3451   34.4011   26.5353 C.3     1  UNL1        0.0003
     28 C          28.8546   32.6620   28.6486 C.3     1  UNL1        0.0000
     29 C          27.3667   32.6261   28.2935 C.3     1  UNL1        0.0003
@<TRIPOS>BOND
     1    28    29    1
     2    29    26    1
     3    26    27    1
     4    26    25    1
     5    25     1    1
     6     1     5   ar
     7     1     2   ar
     8     2     3   ar
     9     2     6    1
    10     3     4   ar
    11     4     5   ar
    12     4     7    1
    13     5    20    1
    14    20    21    2
    15    20    22    1
    16    22    23    1
    17    23    24    1
    18     7     8   am
    19     8     9    2
    20     8    11    1
    21    11    12    1
    22    12    16   ar
    23    12    13   ar
    24    13    14   ar
    25    14    15   ar
    26    14    17    1
    27    15    16   ar
    28    17    18    2
    29    17    19    2
    30     7    10    1
@<TRIPOS>MOLECULE
ZINC06407714
 30 32 0 0 0
SMALL
GASTEIGER

@<TRIPOS>ATOM
      1 N          12.9748   37.6293   27.1347 N.am    1  UNL1       -0.2612
      2 C          12.6622   37.7685   28.4383 C.2     1  UNL1        0.2678
      3 O          11.5361   38.0820   28.7617 O.2     1  UNL1       -0.2708
      4 H          13.8889   37.3750   26.8721 H       1  UNL1        0.1569
      5 C          10.9035   38.8807   24.4230 C.ar    1  UNL1        0.0897
      6 C           9.9607   37.8908   24.4289 C.ar    1  UNL1        0.0572
      7 S          10.5719   36.8593   25.7556 S.2     1  UNL1       -0.0508
      8 C          12.0069   37.8448   26.1612 C.ar    1  UNL1        0.1656
      9 N          11.9059   38.8288   25.2873 N.ar    1  UNL1       -0.2239
     10 C          10.6303   42.0874   21.6445 C.ar    1  UNL1       -0.0222
     11 C          11.0456   40.8390   21.2172 C.ar    1  UNL1       -0.0042
     12 C          11.1362   39.7945   22.1146 C.ar    1  UNL1        0.0012
     13 C          10.8082   39.9993   23.4537 C.ar    1  UNL1        0.0182
     14 C          10.3846   41.2579   23.8774 C.ar    1  UNL1        0.0012
     15 C          10.3034   42.2965   22.9723 C.ar    1  UNL1       -0.0042
     16 C          11.6867   43.1318   19.6590 C.3     1  UNL1        0.0050
     17 C          10.5329   43.2238   20.6595 C.3     1  UNL1        0.0264
     18 C          13.7120   37.5349   29.4940 C.3     1  UNL1        0.2447
     19 C          14.8433   36.6867   28.9094 C.3     1  UNL1        0.0575
     20 O          14.2437   38.8109   29.9385 O.3     1  UNL1       -0.4397
     21 C          14.0661   39.1288   31.2352 C.2     1  UNL1        0.3415
     22 O          12.9696   39.0135   31.7441 O.2     1  UNL1       -0.2449
     23 C          15.2073   39.6187   32.0396 C.ar    1  UNL1        0.0757
     24 C          15.0031   40.5914   33.0202 C.ar    1  UNL1        0.0065
     25 C          16.0639   41.0440   33.7736 C.ar    1  UNL1        0.0035
     26 C          17.3472   40.5371   33.5485 C.ar    1  UNL1        0.0422
     27 C          17.5516   39.5672   32.5625 C.ar    1  UNL1        0.0035
     28 C          16.4885   39.1121   31.8137 C.ar    1  UNL1        0.0065
     29 C          18.4839   41.0244   34.3506 C.2     1  UNL1        0.2342
     30 O          18.8993   42.1520   34.1908 O.2     1  UNL1       -0.2831
@<TRIPOS>BOND
     1    16    17    1
     2    17    10    1
     3    10    15   ar
     4    10    11   ar
     5    11    12   ar
     6    12    13   ar
     7    13    14   ar
     8    13     5    1
     9    14    15   ar
    10     5     9   ar
    11     5     6   ar
    12     6     7   ar
    13     7     8   ar
    14     8     9   ar
    15     8     1    1
    16     1     2   am
    17     2     3    2
    18     2    18    1
    19    18    19    1
    20    18    20    1
    21    20    21    1
    22    21    22    2
    23    21    23    1
    24    23    28   ar
    25    23    24   ar
    26    24    25   ar
    27    25    26   ar
    28    26    27   ar
    29    26    29    1
    30    27    28   ar
    31    29    30    2
    32     1     4    1
@<TRIPOS>MOLECULE
ZINC04507922
 31 33 0 0 0
SMALL
GASTEIGER

@<TRIPOS>ATOM
      1 C          23.2614   39.7101   28.1520 C.ar    1  UNL1        0.0452
      2 C          24.2090   40.7310   28.1406 C.ar    1  UNL1        0.0034
      3 C          23.8149   42.0416   28.3322 C.ar    1  UNL1        0.0001
      4 C          22.4824   42.3483   28.5467 C.ar    1  UNL1        0.0002
      5 C          21.5286   41.3482   28.5671 C.ar    1  UNL1        0.0065
      6 C          21.9059   40.0222   28.3706 C.ar    1  UNL1        0.0787
      7 C          23.6773   38.3066   27.9418 C.2     1  UNL1        0.1958
      8 O          23.4813   37.7687   26.8691 O.2     1  UNL1       -0.2866
      9 C          25.5508   36.1603   31.0760 C.ar    1  UNL1        0.0674
     10 C          24.3901   36.8881   31.3292 C.ar    1  UNL1        0.0161
     11 C          23.7835   37.5814   30.3210 C.ar    1  UNL1        0.0045
     12 C          24.3292   37.5602   29.0322 C.ar    1  UNL1        0.0407
     13 C          25.4951   36.8281   28.7817 C.ar    1  UNL1        0.0285
     14 C          26.0934   36.1323   29.7937 C.ar    1  UNL1        0.1559
     15 C          25.5378   35.3936   33.4264 C.3     1  UNL1        0.1086
     16 N          26.1656   35.4565   32.1043 N.pl3   1  UNL1       -0.3300
     17 H          27.0231   35.0000   31.9443 H       1  UNL1        0.1469
     18 N          27.3231   35.3522   29.5281 N.pl3   1  UNL1        0.0589
     19 O          28.4159   35.8725   29.6650 O.2     1  UNL1       -0.1261
     20 O          27.2422   34.1901   29.1726 O.2     1  UNL1       -0.1261
     21 C          20.8899   38.9490   28.3919 C.2     1  UNL1        0.3416
     22 O          20.3572   38.5965   27.3589 O.2     1  UNL1       -0.2449
     23 O          20.5547   38.3617   29.5570 O.3     1  UNL1       -0.4404
     24 C          19.2416   38.6677   30.0958 C.3     1  UNL1        0.2376
     25 C          19.3661   39.0118   31.5577 C.ar    1  UNL1        0.0487
     26 C          20.6134   39.2236   32.1143 C.ar    1  UNL1        0.0016
     27 C          20.7276   39.5448   33.4538 C.ar    1  UNL1       -0.0001
     28 C          19.5952   39.6433   34.2411 C.ar    1  UNL1        0.0023
     29 C          18.3477   39.4264   33.6882 C.ar    1  UNL1        0.0294
     30 C          18.2317   39.1102   32.3450 C.ar    1  UNL1        0.1396
     31 F          17.0124   38.8975   31.8033 F       1  UNL1       -0.2044
@<TRIPOS>BOND
     1    15    16    1
     2    16     9    1
     3     9    14   ar
     4     9    10   ar
     5    10    11   ar
     6    11    12   ar
     7    12    13   ar
     8    12     7    1
     9    13    14   ar
    10    14    18    1
    11    18    19    2
    12    18    20    2
    13     7     8    2
    14     7     1    1
    15     1     6   ar
    16     1     2   ar
    17     2     3   ar
    18     3     4   ar
    19     4     5   ar
    20     5     6   ar
    21     6    21    1
    22    21    22    2
    23    21    23    1
    24    23    24    1
    25    24    25    1
    26    25    30   ar
    27    25    26   ar
    28    26    27   ar
    29    27    28   ar
    30    28    29   ar
    31    29    30   ar
    32    30    31    1
    33    16    17    1
@<TRIPOS>MOLECULE
ZINC06012086
 31 33 0 0 0
SMALL
GASTEIGER

@<TRIPOS>ATOM
      1 C          22.3257   39.1904   29.2758 C.3     1  UNL1        0.2668
      2 C          23.0771   39.9258   28.1962 C.ar    1  UNL1        0.0263
      3 C          23.4121   39.2769   27.0225 C.ar    1  UNL1       -0.0003
      4 C          24.0976   39.9527   26.0304 C.ar    1  UNL1       -0.0002
      5 C          24.4562   41.2748   26.2159 C.ar    1  UNL1       -0.0000
      6 C          24.1253   41.9224   27.3915 C.ar    1  UNL1       -0.0002
      7 C          23.4361   41.2477   28.3818 C.ar    1  UNL1       -0.0003
      8 N          24.2448   37.9329   30.1999 N.am    1  UNL1       -0.2794
      9 C          23.0398   37.9029   29.5969 C.2     1  UNL1        0.2709
     10 O          22.5302   36.8394   29.3129 O.2     1  UNL1       -0.2705
     11 H          24.6213   38.7899   30.5050 H       1  UNL1        0.1550
     12 C          27.1474   33.1213   30.9799 C.3     1  UNL1        0.0311
     13 C          26.3760   34.3992   30.7725 C.ar    1  UNL1       -0.0201
     14 C          25.4307   34.7932   31.7020 C.ar    1  UNL1       -0.0029
     15 C          24.7187   35.9611   31.5123 C.ar    1  UNL1        0.0160
     16 C          24.9607   36.7461   30.3923 C.ar    1  UNL1        0.0731
     17 C          25.9142   36.3505   29.4638 C.ar    1  UNL1        0.1559
     18 C          26.6189   35.1781   29.6563 C.ar    1  UNL1        0.0211
     19 N          26.1748   37.1838   28.2686 N.pl3   1  UNL1        0.0589
     20 O          26.5716   38.3280   28.3987 O.2     1  UNL1       -0.1261
     21 O          25.9925   36.7254   27.1550 O.2     1  UNL1       -0.1261
     22 O          21.0020   38.9005   28.8219 O.3     1  UNL1       -0.4351
     23 C          20.0133   38.9577   29.7393 C.2     1  UNL1        0.3422
     24 O          18.8905   38.5895   29.4477 O.2     1  UNL1       -0.2449
     25 C          20.2819   39.4451   31.0381 C.2     1  UNL1        0.0850
     26 C          19.4584   39.1224   32.0679 C.2     1  UNL1        0.0441
     27 C          19.7274   39.6106   33.3688 C.ar    1  UNL1        0.1458
     28 C          19.6491   40.9268   33.7759 C.ar    1  UNL1        0.0407
     29 C          19.9958   40.9455   35.1351 C.ar    1  UNL1        0.0438
     30 C          20.2740   39.6724   35.4944 C.ar    1  UNL1        0.1796
     31 O          20.1118   38.8727   34.4313 O.2     1  UNL1       -0.4504
@<TRIPOS>BOND
     1    12    13    1
     2    13    18   ar
     3    13    14   ar
     4    14    15   ar
     5    15    16   ar
     6    16    17   ar
     7    16     8    1
     8    17    18   ar
     9    17    19    1
    10    19    20    2
    11    19    21    2
    12     8     9   am
    13     9    10    2
    14     9     1    1
    15     1     2    1
    16     1    22    1
    17     2     7   ar
    18     2     3   ar
    19     3     4   ar
    20     4     5   ar
    21     5     6   ar
    22     6     7   ar
    23    22    23    1
    24    23    24    2
    25    23    25    1
    26    25    26    2
    27    26    27    1
    28    27    31   ar
    29    27    28   ar
    30    28    29   ar
    31    29    30   ar
    32    30    31   ar
    33     8    11    1
@<TRIPOS>MOLECULE
ZINC05429156
 31 33 0 0 0
SMALL
GASTEIGER

@<TRIPOS>ATOM
      1 C          22.2907   37.5678   28.5110 C.3     1  UNL1        0.1397
      2 C          20.8812   37.0399   28.2871 C.2     1  UNL1        0.2412
      3 O          20.5987   36.2814   27.3847 O.2     1  UNL1       -0.2737
      4 N          19.9897   37.4809   29.1628 N.am    1  UNL1       -0.2232
      5 C          20.3072   38.3285   30.1721 C.2     1  UNL1        0.3379
      6 N          19.4703   38.8422   31.1251 N.2     1  UNL1       -0.0774
      7 S          22.0079   38.6198   29.9887 S.3     1  UNL1       -0.0181
      8 H          19.0563   37.1800   29.0767 H       1  UNL1        0.1610
      9 H          19.8224   39.4539   31.8114 H       1  UNL1        0.4916
     10 N          18.2199   38.5250   31.1243 N.2     1  UNL1        0.0052
     11 C          17.3032   39.3906   30.6368 C.2     1  UNL1        0.1701
     12 C          15.9453   39.0461   30.6361 C.ar    1  UNL1        0.0252
     13 C          15.4019   38.2849   29.5729 C.ar    1  UNL1        0.0034
     14 C          14.0794   37.9518   29.5882 C.ar    1  UNL1        0.0241
     15 C          13.2638   38.3658   30.6345 C.ar    1  UNL1        0.1429
     16 C          13.7822   39.1182   31.6815 C.ar    1  UNL1        0.0241
     17 C          15.1022   39.4608   31.6955 C.ar    1  UNL1        0.0034
     18 N          11.8284   38.0012   30.6339 N.pl3   1  UNL1        0.0577
     19 O          11.1664   37.9309   31.7702 O.2     1  UNL1       -0.1261
     20 O          11.2140   37.7471   29.4970 O.2     1  UNL1       -0.1261
     21 C          22.7682   38.4001   27.3194 C.3     1  UNL1        0.0469
     22 C          25.2873   41.5584   28.7076 C.ar    1  UNL1       -0.0222
     23 C          25.7193   40.2472   28.7799 C.ar    1  UNL1       -0.0046
     24 C          24.9021   39.2248   28.3350 C.ar    1  UNL1       -0.0045
     25 C          23.6571   39.5143   27.8089 C.ar    1  UNL1       -0.0208
     26 C          23.2270   40.8259   27.7321 C.ar    1  UNL1       -0.0045
     27 C          24.0423   41.8479   28.1811 C.ar    1  UNL1       -0.0046
     28 C          26.1761   42.6726   29.1971 C.3     1  UNL1        0.0264
     29 C          26.3564   43.7073   28.0846 C.3     1  UNL1        0.0047
     30 C          25.1180   44.8955   29.9003 C.3     1  UNL1        0.0000
     31 C          25.6064   44.9888   28.4534 C.3     1  UNL1        0.0003
@<TRIPOS>UNITY_ATOM_ATTR
6 1
charge 1
@<TRIPOS>BOND
     1    30    31    1
     2    31    29    1
     3    29    28    1
     4    28    22    1
     5    22    27   ar
     6    22    23   ar
     7    23    24   ar
     8    24    25   ar
     9    25    26   ar
    10    25    21    1
    11    26    27   ar
    12    21     1    1
    13     1     7    1
    14     1     2    1
    15     2     3    2
    16     2     4   am
    17     4     5    1
    18     5     6    2
    19     5     7    1
    20     6    10    1
    21    10    11    2
    22    11    12    1
    23    12    17   ar
    24    12    13   ar
    25    13    14   ar
    26    14    15   ar
    27    15    16   ar
    28    15    18    1
    29    16    17   ar
    30    18    19    2
    31    18    20    2
    32     4     8    1
    33     6     9    1
@<TRIPOS>MOLECULE
ZINC31452257
 30 32 0 0 0
SMALL
GASTEIGER

@<TRIPOS>ATOM
      1 C          20.2829   38.3733   30.7565 C.3     1  UNL1        0.2372
      2 C          18.9301   38.7712   31.2884 C.ar    1  UNL1        0.0469
      3 C          17.8320   38.7740   30.4479 C.ar    1  UNL1        0.0410
      4 C          16.5870   39.1348   30.9363 C.ar    1  UNL1        0.1725
      5 C          16.4466   39.5041   32.2710 C.ar    1  UNL1        0.1796
      6 C          17.5517   39.5040   33.1063 C.ar    1  UNL1        0.0641
      7 C          18.7908   39.1378   32.6137 C.ar    1  UNL1        0.1456
      8 N          19.9703   39.1379   33.5077 N.pl3   1  UNL1        0.0576
      9 O          20.8449   39.9730   33.3620 O.2     1  UNL1       -0.1261
     10 O          20.0664   38.3029   34.3892 O.2     1  UNL1       -0.1261
     11 O          15.5049   39.1327   30.1124 O.3     1  UNL1       -0.4684
     12 C          15.1684   37.8929   29.4867 C.3     1  UNL1        0.2526
     13 O          15.2273   39.8635   32.7541 O.3     1  UNL1       -0.4205
     14 C          15.0645   41.2249   33.1569 C.3     1  UNL1        0.5087
     15 F          15.4276   41.3600   34.5012 F       1  UNL1       -0.1550
     16 F          15.8795   42.0449   32.3691 F       1  UNL1       -0.1550
     17 O          20.1140   37.5156   29.5972 O.3     1  UNL1       -0.4394
     18 C          20.7185   37.9032   28.4558 C.2     1  UNL1        0.3574
     19 O          20.5684   37.2554   27.4381 O.2     1  UNL1       -0.2433
     20 C          23.6584   44.7343   28.5581 C.3     1  UNL1        0.0311
     21 C          23.5340   43.2343   28.4833 C.ar    1  UNL1       -0.0204
     22 C          24.6741   42.4568   28.3213 C.ar    1  UNL1       -0.0042
     23 C          24.5837   41.0973   28.2507 C.ar    1  UNL1        0.0012
     24 C          23.3308   40.4764   28.3422 C.ar    1  UNL1        0.0172
     25 C          22.9108   39.1251   28.3053 C.ar    1  UNL1        0.0250
     26 C          21.5583   39.1083   28.4422 C.ar    1  UNL1        0.1333
     27 N          21.0998   40.4060   28.5655 N.ar    1  UNL1       -0.3481
     28 C          22.1735   41.2624   28.5065 C.ar    1  UNL1        0.0564
     29 C          22.2919   42.6480   28.5757 C.ar    1  UNL1        0.0127
     30 H          20.1589   40.6733   28.6772 H       1  UNL1        0.1661
@<TRIPOS>BOND
     1    20    21    1
     2    21    29   ar
     3    21    22   ar
     4    22    23   ar
     5    23    24   ar
     6    24    28   ar
     7    24    25   ar
     8    25    26   ar
     9    26    27   ar
    10    26    18    1
    11    27    28   ar
    12    28    29   ar
    13    18    19    2
    14    18    17    1
    15    17     1    1
    16     1     2    1
    17     2     7   ar
    18     2     3   ar
    19     3     4   ar
    20     4     5   ar
    21     4    11    1
    22     5     6   ar
    23     5    13    1
    24     6     7   ar
    25     7     8    1
    26     8     9    2
    27     8    10    2
    28    13    14    1
    29    14    15    1
    30    14    16    1
    31    11    12    1
    32    27    30    1
@<TRIPOS>MOLECULE
ZINC11227880
 28 31 0 0 0
SMALL
GASTEIGER

@<TRIPOS>ATOM
      1 C          11.0230   37.8879   23.7161 C.ar    1  UNL1        0.0078
      2 C          10.8125   38.8166   22.7222 C.ar    1  UNL1        0.0162
      3 C          10.4491   40.1192   23.0537 C.ar    1  UNL1        0.0673
      4 C          10.3037   40.4863   24.3889 C.ar    1  UNL1        0.1561
      5 C          10.5167   39.5713   25.3802 C.ar    1  UNL1        0.0318
      6 C          10.8815   38.2605   25.0567 C.ar    1  UNL1        0.0774
      7 N           9.9177   41.8728   24.7352 N.pl3   1  UNL1        0.0589
      8 O          10.3910   42.4084   25.7214 O.2     1  UNL1       -0.1261
      9 O           9.1269   42.4779   24.0339 O.2     1  UNL1       -0.1261
     10 C          11.1106   37.2723   26.1259 C.2     1  UNL1        0.3416
     11 O          11.1152   36.0854   25.8656 O.2     1  UNL1       -0.2449
     12 O          11.3150   37.6852   27.3924 O.3     1  UNL1       -0.4387
     13 C          12.4649   37.1347   28.0876 C.3     1  UNL1        0.2547
     14 C          12.6480   37.8508   29.4009 C.ar    1  UNL1        0.1098
     15 C          11.5645   38.2672   30.1048 C.ar    1  UNL1        0.0553
     16 S          12.3583   39.0200   31.5196 S.2     1  UNL1       -0.0662
     17 C          14.0450   38.7062   31.0160 C.ar    1  UNL1        0.1110
     18 N          13.8571   38.0778   29.8634 N.ar    1  UNL1       -0.2389
     19 C          15.3081   39.0535   31.7000 C.ar    1  UNL1        0.0308
     20 C          15.3011   39.5599   32.9981 C.ar    1  UNL1        0.0095
     21 C          16.4769   39.8650   33.5897 C.ar    1  UNL1        0.0355
     22 S          17.6607   39.4448   32.3221 S.2     1  UNL1       -0.0859
     23 C          16.5146   38.8801   31.0756 C.ar    1  UNL1        0.0375
     24 N          10.2313   41.0553   22.0494 N.pl3   1  UNL1       -0.3327
     25 H           9.3143   41.3413   21.8335 H       1  UNL1        0.1468
     26 C          11.3663   41.6163   21.3124 C.3     1  UNL1        0.0692
     27 C          12.0590   42.8432   21.9089 C.3     1  UNL1        0.0212
     28 C          11.1791   42.9904   20.6658 C.3     1  UNL1        0.0212
@<TRIPOS>BOND
     1     1     6   ar
     2     1     2   ar
     3     2     3   ar
     4     3     4   ar
     5     3    24    1
     6     4     5   ar
     7     4     7    1
     8     5     6   ar
     9     6    10    1
    10    10    11    2
    11    10    12    1
    12    12    13    1
    13    13    14    1
    14    14    18   ar
    15    14    15   ar
    16    15    16   ar
    17    16    17   ar
    18    17    18   ar
    19    17    19    1
    20    19    23   ar
    21    19    20   ar
    22    20    21   ar
    23    21    22   ar
    24    22    23   ar
    25     7     8    2
    26     7     9    2
    27    24    26    1
    28    26    28    1
    29    26    27    1
    30    27    28    1
    31    24    25    1
@<TRIPOS>MOLECULE
ZINC08506535
 29 31 0 0 0
SMALL
GASTEIGER

@<TRIPOS>ATOM
      1 C          23.3442   37.6491   26.0534 C.ar    1  UNL1        0.0003
      2 C          21.9786   37.8816   26.0981 C.ar    1  UNL1        0.0013
      3 C          21.3860   38.3448   27.2551 C.ar    1  UNL1        0.0149
      4 C          22.1573   38.5810   28.3856 C.ar    1  UNL1        0.0569
      5 C          23.5405   38.3462   28.3441 C.ar    1  UNL1        0.0891
      6 C          24.1265   37.8827   27.1630 C.ar    1  UNL1        0.0077
      7 N          21.5622   39.0483   29.5531 N.am    1  UNL1       -0.2777
      8 C          20.5393   38.3677   30.1071 C.2     1  UNL1        0.2843
      9 O          20.1992   37.2956   29.6423 O.2     1  UNL1       -0.2665
     10 H          21.8882   39.8762   29.9745 H       1  UNL1        0.1553
     11 C          19.8366   38.9187   31.2697 C.ar    1  UNL1        0.2007
     12 C          18.5529   38.6353   31.6401 C.ar    1  UNL1        0.0472
     13 C          18.2958   39.3766   32.8038 C.ar    1  UNL1        0.0662
     14 C          19.4164   40.0777   33.0846 C.ar    1  UNL1        0.2890
     15 O          20.3426   39.7991   32.1580 O.2     1  UNL1       -0.4282
     16 N          19.5919   41.0008   34.2283 N.pl3   1  UNL1        0.0932
     17 O          19.0196   42.0760   34.2366 O.2     1  UNL1       -0.1230
     18 O          20.3086   40.6853   35.1614 O.2     1  UNL1       -0.1230
     19 C          24.3705   38.5927   29.5366 C.2     1  UNL1        0.3427
     20 O          25.3146   39.3550   29.4727 O.2     1  UNL1       -0.2448
     21 O          24.0825   37.9725   30.6978 O.3     1  UNL1       -0.4404
     22 C          24.2672   36.5329   30.7397 C.3     1  UNL1        0.2354
     23 C          25.3558   36.1946   31.7255 C.ar    1  UNL1        0.0221
     24 C          25.0344   35.6093   32.9361 C.ar    1  UNL1       -0.0006
     25 C          26.0328   35.2935   33.8383 C.ar    1  UNL1        0.0007
     26 C          27.3528   35.5680   33.5331 C.ar    1  UNL1        0.0114
     27 C          27.6744   36.1588   32.3243 C.ar    1  UNL1        0.0575
     28 C          26.6745   36.4746   31.4215 C.ar    1  UNL1        0.0107
     29 CL         29.3318   36.5041   31.9403 Cl      1  UNL1       -0.0823
@<TRIPOS>BOND
     1     1     6   ar
     2     1     2   ar
     3     2     3   ar
     4     3     4   ar
     5     4     5   ar
     6     4     7    1
     7     5     6   ar
     8     5    19    1
     9    19    20    2
    10    19    21    1
    11    21    22    1
    12    22    23    1
    13    23    28   ar
    14    23    24   ar
    15    24    25   ar
    16    25    26   ar
    17    26    27   ar
    18    27    28   ar
    19    27    29    1
    20     7     8   am
    21     8     9    2
    22     8    11    1
    23    11    15   ar
    24    11    12   ar
    25    12    13   ar
    26    13    14   ar
    27    14    15   ar
    28    14    16    1
    29    16    17    2
    30    16    18    2
    31     7    10    1
@<TRIPOS>MOLECULE
ZINC21730013
 28 30 0 0 0
SMALL
GASTEIGER

@<TRIPOS>ATOM
      1 C          16.5394   39.8666   32.5232 C.ar    1  UNL1        0.0512
      2 C          16.2450   40.6345   33.6434 C.ar    1  UNL1        0.0162
      3 C          17.2474   40.9858   34.5234 C.ar    1  UNL1        0.0253
      4 C          18.5533   40.5780   34.2995 C.ar    1  UNL1        0.1432
      5 C          18.8651   39.8164   33.1951 C.ar    1  UNL1        0.0318
      6 C          17.8600   39.4470   32.2965 C.ar    1  UNL1        0.0904
      7 N          19.6183   40.9627   35.2528 N.pl3   1  UNL1        0.0577
      8 O          19.3894   41.7836   36.1230 O.2     1  UNL1       -0.1261
      9 O          20.7238   40.4585   35.1670 O.2     1  UNL1       -0.1261
     10 N          15.5322   39.5114   31.6362 N.pl3   1  UNL1       -0.3289
     11 H          15.7001   39.5332   30.6664 H       1  UNL1        0.1471
     12 C          14.2194   39.1043   32.1433 C.3     1  UNL1        0.1143
     13 C          11.8425   37.6263   28.9164 C.ar    1  UNL1       -0.0000
     14 C          13.2213   37.5572   28.8473 C.ar    1  UNL1       -0.0003
     15 C          13.9906   38.0354   29.8916 C.ar    1  UNL1       -0.0026
     16 C          13.3809   38.5828   31.0049 C.ar    1  UNL1       -0.0026
     17 C          12.0020   38.6523   31.0738 C.ar    1  UNL1       -0.0026
     18 C          11.2327   38.1741   30.0295 C.ar    1  UNL1       -0.0003
     19 C          18.1851   38.6276   31.1166 C.2     1  UNL1        0.3428
     20 O          17.4119   38.5765   30.1805 O.2     1  UNL1       -0.2448
     21 O          19.3400   37.9344   31.0751 O.3     1  UNL1       -0.4386
     22 C          20.5008   38.6193   30.5347 C.3     1  UNL1        0.2574
     23 C          20.7571   38.1405   29.1290 C.ar    1  UNL1        0.1429
     24 C          21.4598   38.8663   28.2143 C.ar    1  UNL1        0.1252
     25 S          21.4080   37.8104   26.8420 S.2     1  UNL1        0.0486
     26 N          20.5660   36.6291   27.4645 N.ar    1  UNL1       -0.1087
     27 N          20.3174   36.9862   28.6734 N.ar    1  UNL1       -0.1403
     28 CL         22.2053   40.4253   28.3798 Cl      1  UNL1       -0.0722
@<TRIPOS>BOND
     1    13    18   ar
     2    13    14   ar
     3    14    15   ar
     4    15    16   ar
     5    16    17   ar
     6    16    12    1
     7    17    18   ar
     8    12    10    1
     9    10     1    1
    10     1     6   ar
    11     1     2   ar
    12     2     3   ar
    13     3     4   ar
    14     4     5   ar
    15     4     7    1
    16     5     6   ar
    17     6    19    1
    18    19    20    2
    19    19    21    1
    20    21    22    1
    21    22    23    1
    22    23    27   ar
    23    23    24   ar
    24    24    25   ar
    25    24    28    1
    26    25    26   ar
    27    26    27   ar
    28     7     8    2
    29     7     9    2
    30    10    11    1
@<TRIPOS>MOLECULE
ZINC06458055
 31 33 0 0 0
SMALL
GASTEIGER

@<TRIPOS>ATOM
      1 C          14.1701   37.1725   28.8716 C.ar    1  UNL1        0.1007
      2 C          14.1990   36.3336   27.7449 C.ar    1  UNL1        0.0223
      3 C          13.0700   36.1535   27.0025 C.ar    1  UNL1        0.0214
      4 C          11.8886   36.8107   27.3538 C.ar    1  UNL1        0.0894
      5 C          11.8566   37.6498   28.4699 C.ar    1  UNL1        0.0214
      6 C          12.9793   37.8312   29.2214 C.ar    1  UNL1        0.0223
      7 N          15.8666   38.5000   29.6351 N.am    1  UNL1       -0.0753
      8 N          15.2835   37.3495   29.6119 N.2     1  UNL1       -0.1559
      9 C          16.9793   38.6768   30.3748 C.2     1  UNL1        0.2861
     10 O          18.0574   38.3084   29.9491 O.2     1  UNL1       -0.2665
     11 C          17.9176   39.9702   33.7781 C.ar    1  UNL1        0.1389
     12 C          16.7136   40.5233   34.1952 C.ar    1  UNL1        0.0369
     13 C          15.6029   40.4750   33.3731 C.ar    1  UNL1        0.0033
     14 C          15.6832   39.8774   32.1320 C.ar    1  UNL1        0.0048
     15 C          16.8892   39.3186   31.7038 C.ar    1  UNL1        0.0598
     16 C          18.0110   39.3728   32.5330 C.ar    1  UNL1        0.0415
     17 C          19.3772   41.3038   35.0986 C.3     1  UNL1        0.2525
     18 O          19.0058   40.0208   34.5906 O.3     1  UNL1       -0.4714
     19 N          10.7491   36.6300   26.5957 N.4     1  UNL1       -0.2163
     20 H          10.2120   35.8118   26.7016 H       1  UNL1        0.2073
     21 O          10.4082   37.4829   25.7959 O.3     1  UNL1       -0.3366
     22 C          10.5657   37.1945   24.4911 C.2     1  UNL1        0.3649
     23 O          10.7718   36.0470   24.1422 O.2     1  UNL1       -0.2426
     24 C          10.4889   38.2605   23.4918 C.2     1  UNL1        0.0841
     25 C          10.7892   39.5296   23.8351 C.2     1  UNL1        0.0067
     26 C          10.7118   40.6020   22.8298 C.ar    1  UNL1        0.0002
     27 C          10.1603   41.8423   23.1663 C.ar    1  UNL1        0.0000
     28 C          10.0962   42.8435   22.2204 C.ar    1  UNL1        0.0000
     29 C          10.5658   42.6199   20.9378 C.ar    1  UNL1        0.0000
     30 C          11.1082   41.3934   20.5957 C.ar    1  UNL1        0.0000
     31 C          11.1841   40.3838   21.5317 C.ar    1  UNL1        0.0000
@<TRIPOS>BOND
     1    17    18    1
     2    18    11    1
     3    11    16   ar
     4    11    12   ar
     5    12    13   ar
     6    13    14   ar
     7    14    15   ar
     8    15    16   ar
     9    15     9    1
    10     9    10    2
    11     9     7    1
    12     7     8    2
    13     8     1    1
    14     1     6   ar
    15     1     2   ar
    16     2     3   ar
    17     3     4   ar
    18     4     5   ar
    19     4    19    1
    20     5     6   ar
    21    19    21    1
    22    21    22    1
    23    22    23    2
    24    22    24    1
    25    24    25    2
    26    25    26    1
    27    26    31   ar
    28    26    27   ar
    29    27    28   ar
    30    28    29   ar
    31    29    30   ar
    32    30    31   ar
    33    19    20    1
@<TRIPOS>MOLECULE
ZINC13791618
 29 31 0 0 0
SMALL
GASTEIGER

@<TRIPOS>ATOM
      1 N          23.2343   39.9540   28.1708 N.am    1  UNL1       -0.3221
      2 H          22.4302   40.4575   28.4338 H       1  UNL1        0.1514
      3 C          23.8500   40.2165   26.9582 C.ar    1  UNL1        0.0834
      4 C          24.5469   41.3545   26.5725 C.ar    1  UNL1        0.0914
      5 C          25.1059   41.3761   25.2307 C.ar    1  UNL1       -0.0122
      6 C          24.8709   40.2707   24.4918 C.ar    1  UNL1        0.0047
      7 S          23.9313   39.2084   25.5515 S.2     1  UNL1       -0.0768
      8 C          25.3143   40.0139   23.0845 C.3     1  UNL1        0.0327
      9 C          25.7601   41.3472   22.4668 C.3     1  UNL1        0.0055
     10 C          26.6948   42.0582   23.4496 C.3     1  UNL1        0.0050
     11 C          25.9004   42.5456   24.6626 C.3     1  UNL1        0.0268
     12 C          24.7155   42.4874   27.4841 C.2     1  UNL1        0.3427
     13 O          25.5681   42.4490   28.3509 O.2     1  UNL1       -0.2448
     14 O          23.9256   43.5741   27.3627 O.3     1  UNL1       -0.4413
     15 C          23.0217   43.8581   28.4629 C.3     1  UNL1        0.2560
     16 C          23.7359   39.0091   28.9907 C.2     1  UNL1       -0.0367
     17 S          25.3878   39.0533   29.4380 S.2     1  UNL1       -0.0618
     18 N          22.9369   38.0297   29.4585 N.am    1  UNL1       -0.6259
     19 C          19.3417   38.9919   31.3384 C.ar    1  UNL1        0.1403
     20 C          20.5445   39.1823   32.0032 C.ar    1  UNL1        0.0351
     21 C          21.7354   38.8642   31.3812 C.ar    1  UNL1       -0.0199
     22 C          21.7291   38.3529   30.0901 C.ar    1  UNL1       -0.1004
     23 C          20.5255   38.1674   29.4235 C.ar    1  UNL1        0.1232
     24 C          19.3346   38.4813   30.0488 C.ar    1  UNL1        0.0590
     25 N          20.5181   37.6282   28.0450 N.pl3   1  UNL1        0.0559
     26 O          20.4201   36.4282   27.8609 O.2     1  UNL1       -0.1262
     27 O          20.6100   38.3845   27.0948 O.2     1  UNL1       -0.1262
     28 C          18.2505   40.0863   33.1457 C.3     1  UNL1        0.2525
     29 O          18.1693   39.3064   31.9512 O.3     1  UNL1       -0.4714
@<TRIPOS>UNITY_ATOM_ATTR
18 1
charge -1
@<TRIPOS>BOND
     1    28    29    1
     2    29    19    1
     3    19    24   ar
     4    19    20   ar
     5    20    21   ar
     6    21    22   ar
     7    22    23   ar
     8    22    18    1
     9    23    24   ar
    10    23    25    1
    11    25    26    2
    12    25    27    2
    13    18    16    1
    14    16    17    2
    15    16     1    1
    16     1     3    1
    17     3     7   ar
    18     3     4   ar
    19     4     5   ar
    20     4    12    1
    21     5    11    1
    22     5     6   ar
    23     6     7   ar
    24     6     8    1
    25     8     9    1
    26     9    10    1
    27    10    11    1
    28    12    13    2
    29    12    14    1
    30    14    15    1
    31     1     2    1
@<TRIPOS>MOLECULE
ZINC03467879
 31 33 0 0 0
SMALL
GASTEIGER

@<TRIPOS>ATOM
      1 O          21.6482   38.9637   27.1547 O.3     1  UNL1       -0.4353
      2 C          22.8767   38.4490   26.9536 C.2     1  UNL1        0.3414
      3 O          23.1395   37.8966   25.9041 O.2     1  UNL1       -0.2449
      4 C          23.9044   38.5563   28.0094 C.ar    1  UNL1        0.0720
      5 C          24.0238   37.5558   28.9763 C.ar    1  UNL1        0.0061
      6 C          24.9858   37.6621   29.9589 C.ar    1  UNL1        0.0002
      7 C          25.8318   38.7569   29.9879 C.ar    1  UNL1       -0.0003
      8 C          25.7194   39.7514   29.0327 C.ar    1  UNL1       -0.0037
      9 C          24.7646   39.6555   28.0414 C.ar    1  UNL1       -0.0116
     10 C          24.6474   40.7369   26.9984 C.3     1  UNL1        0.0528
     11 C          24.2012   42.0192   27.6525 C.ar    1  UNL1       -0.0178
     12 C          25.0342   43.1223   27.6507 C.ar    1  UNL1       -0.0039
     13 C          24.6229   44.2999   28.2465 C.ar    1  UNL1       -0.0003
     14 C          23.3827   44.3714   28.8527 C.ar    1  UNL1       -0.0000
     15 C          22.5520   43.2666   28.8595 C.ar    1  UNL1       -0.0003
     16 C          22.9611   42.0905   28.2592 C.ar    1  UNL1       -0.0039
     17 C          20.6754   38.1101   27.8128 C.3     1  UNL1        0.2930
     18 N          19.4000   38.1002   29.9322 N.am    1  UNL1       -0.2811
     19 C          20.2124   38.7663   29.0880 C.2     1  UNL1        0.2708
     20 O          20.5709   39.8939   29.3545 O.2     1  UNL1       -0.2707
     21 H          19.0590   37.2097   29.6873 H       1  UNL1        0.1550
     22 C          16.6475   38.6468   30.4054 C.3     1  UNL1        0.0341
     23 C          17.7091   38.9579   31.4288 C.ar    1  UNL1        0.0141
     24 C          19.0413   38.6742   31.1568 C.ar    1  UNL1        0.0480
     25 C          20.0162   38.9615   32.1028 C.ar    1  UNL1        0.0145
     26 C          19.6588   39.5285   33.3106 C.ar    1  UNL1        0.0030
     27 C          18.3320   39.8101   33.5781 C.ar    1  UNL1        0.0238
     28 C          17.3584   39.5252   32.6380 C.ar    1  UNL1        0.1401
     29 N          15.9390   39.8283   32.9284 N.pl3   1  UNL1        0.0574
     30 O          15.2280   38.9821   33.4401 O.2     1  UNL1       -0.1261
     31 O          15.4822   40.9239   32.6558 O.2     1  UNL1       -0.1261
@<TRIPOS>BOND
     1    22    23    1
     2    23    28   ar
     3    23    24   ar
     4    24    25   ar
     5    24    18    1
     6    25    26   ar
     7    26    27   ar
     8    27    28   ar
     9    28    29    1
    10    29    30    2
    11    29    31    2
    12    18    19   am
    13    19    20    2
    14    19    17    1
    15    17     1    1
    16     1     2    1
    17     2     3    2
    18     2     4    1
    19     4     9   ar
    20     4     5   ar
    21     5     6   ar
    22     6     7   ar
    23     7     8   ar
    24     8     9   ar
    25     9    10    1
    26    10    11    1
    27    11    16   ar
    28    11    12   ar
    29    12    13   ar
    30    13    14   ar
    31    14    15   ar
    32    15    16   ar
    33    18    21    1
@<TRIPOS>MOLECULE
ZINC12044452
 29 30 0 0 0
SMALL
GASTEIGER

@<TRIPOS>ATOM
      1 O          13.7720   37.7785   30.4065 O.3     1  UNL1       -0.4397
      2 C          14.4419   37.5170   29.2650 C.2     1  UNL1        0.3418
      3 O          15.5994   37.1462   29.3105 O.2     1  UNL1       -0.2449
      4 C          13.7766   37.6793   27.9735 C.2     1  UNL1        0.0819
      5 C          12.4598   37.4089   27.8538 C.2     1  UNL1        0.0067
      6 C          11.7904   37.5722   26.5540 C.ar    1  UNL1        0.0019
      7 C          11.0061   36.5375   26.0325 C.ar    1  UNL1        0.0010
      8 C          10.3820   36.6975   24.8142 C.ar    1  UNL1        0.0131
      9 C          10.5303   37.8793   24.1058 C.ar    1  UNL1        0.0801
     10 C          11.3057   38.9079   24.6159 C.ar    1  UNL1        0.1533
     11 C          11.9304   38.7645   25.8363 C.ar    1  UNL1        0.0249
     12 CL          9.7409   38.0717   22.5718 Cl      1  UNL1       -0.0805
     13 N          11.4580   40.1663   23.8518 N.pl3   1  UNL1        0.0585
     14 O          12.4400   40.3389   23.1522 O.2     1  UNL1       -0.1261
     15 O          10.6014   41.0293   23.9226 O.2     1  UNL1       -0.1261
     16 C          13.8461   39.1134   30.9110 C.3     1  UNL1        0.2445
     17 C          14.9573   39.2063   31.9247 C.2     1  UNL1        0.2664
     18 O          14.8119   38.7274   33.0294 O.2     1  UNL1       -0.2709
     19 N          16.1127   39.8215   31.6036 N.am    1  UNL1       -0.2810
     20 H          16.2572   40.1498   30.6868 H       1  UNL1        0.1550
     21 C          17.1075   39.9936   32.5739 C.ar    1  UNL1        0.0505
     22 C          18.1705   39.1032   32.6453 C.ar    1  UNL1        0.0170
     23 C          19.1541   39.2788   33.5988 C.ar    1  UNL1        0.0309
     24 C          19.0740   40.3343   34.4915 C.ar    1  UNL1        0.1402
     25 C          18.0114   41.2198   34.4259 C.ar    1  UNL1        0.0309
     26 C          17.0292   41.0518   33.4696 C.ar    1  UNL1        0.0170
     27 F          20.0340   40.5008   35.4274 F       1  UNL1       -0.2042
     28 C          11.5168   38.3414   31.3808 C.3     1  UNL1        0.0044
     29 C          12.5179   39.4820   31.5750 C.3     1  UNL1        0.0533
@<TRIPOS>BOND
     1    28    29    1
     2    29    16    1
     3    16    17    1
     4    16     1    1
     5    17    18    2
     6    17    19   am
     7    19    21    1
     8    21    26   ar
     9    21    22   ar
    10    22    23   ar
    11    23    24   ar
    12    24    25   ar
    13    24    27    1
    14    25    26   ar
    15     1     2    1
    16     2     3    2
    17     2     4    1
    18     4     5    2
    19     5     6    1
    20     6    11   ar
    21     6     7   ar
    22     7     8   ar
    23     8     9   ar
    24     9    10   ar
    25     9    12    1
    26    10    11   ar
    27    10    13    1
    28    13    14    2
    29    13    15    2
    30    19    20    1
@<TRIPOS>MOLECULE
ZINC22670601
 29 30 0 0 0
SMALL
GASTEIGER

@<TRIPOS>ATOM
      1 N          19.1645   38.2005   30.8866 N.am    1  UNL1       -0.2757
      2 C          20.2144   38.4922   30.0935 C.2     1  UNL1        0.2711
      3 O          20.8758   39.4867   30.3045 O.2     1  UNL1       -0.2707
      4 H          18.6275   37.3933   30.7153 H       1  UNL1        0.1554
      5 C          16.2384   40.9485   33.9720 C.3     1  UNL1        0.0315
      6 C          17.5398   40.3751   33.4734 C.ar    1  UNL1       -0.0119
      7 C          18.7052   40.6424   34.0890 C.ar    1  UNL1        0.0051
      8 S          19.8973   39.7415   33.1204 S.2     1  UNL1       -0.0767
      9 C          18.8406   39.0369   31.9433 C.ar    1  UNL1        0.0864
     10 C          17.5884   39.5155   32.3142 C.ar    1  UNL1        0.0915
     11 C          18.9445   41.4981   35.3063 C.3     1  UNL1        0.0379
     12 C          16.3785   39.1604   31.5695 C.2     1  UNL1        0.3427
     13 O          16.4272   39.0178   30.3625 O.2     1  UNL1       -0.2448
     14 O          15.2103   38.9915   32.2220 O.3     1  UNL1       -0.4413
     15 C          13.9975   39.3404   31.5037 C.3     1  UNL1        0.2560
     16 C          20.5664   37.5828   28.9446 C.3     1  UNL1        0.2930
     17 O          20.6636   38.3616   27.7230 O.3     1  UNL1       -0.4353
     18 C          21.7331   38.1341   26.9359 C.2     1  UNL1        0.3417
     19 O          21.6607   37.3263   26.0315 O.2     1  UNL1       -0.2449
     20 C          22.9933   38.8665   27.1726 C.ar    1  UNL1        0.0757
     21 C          22.9665   40.1259   27.7779 C.ar    1  UNL1        0.0065
     22 C          24.1415   40.8066   28.0024 C.ar    1  UNL1        0.0019
     23 C          25.3603   40.2430   27.6160 C.ar    1  UNL1        0.0224
     24 C          25.3867   38.9859   27.0065 C.ar    1  UNL1        0.0019
     25 C          24.2123   38.3029   26.7862 C.ar    1  UNL1        0.0065
     26 C          26.6200   40.9753   27.8522 C.2     1  UNL1        0.1400
     27 N          27.1906   40.9234   29.0118 N.2     1  UNL1       -0.0813
     28 O          28.3989   41.6259   29.2384 O.2     1  UNL1       -0.3730
     29 C          29.5499   41.0023   28.6654 C.3     1  UNL1        0.2885
@<TRIPOS>BOND
     1     5     6    1
     2     6    10   ar
     3     6     7   ar
     4     7     8   ar
     5     7    11    1
     6     8     9   ar
     7     9    10   ar
     8     9     1    1
     9    10    12    1
    10    12    13    2
    11    12    14    1
    12    14    15    1
    13     1     2   am
    14     2     3    2
    15     2    16    1
    16    16    17    1
    17    17    18    1
    18    18    19    2
    19    18    20    1
    20    20    25   ar
    21    20    21   ar
    22    21    22   ar
    23    22    23   ar
    24    23    24   ar
    25    23    26    1
    26    24    25   ar
    27    26    27    2
    28    27    28    1
    29    28    29    1
    30     1     4    1
@<TRIPOS>MOLECULE
ZINC17087671
 30 32 0 0 0
SMALL
GASTEIGER

@<TRIPOS>ATOM
      1 C          20.0675   38.8417   30.4991 C.2     1  UNL1        0.2486
      2 O          19.5237   38.1256   29.6817 O.2     1  UNL1       -0.2698
      3 N          21.3239   39.2787   30.2824 N.am    1  UNL1       -0.2955
      4 H          21.7644   39.8588   30.9447 H       1  UNL1        0.1538
      5 C          17.3011   39.4590   32.9681 C.ar    1  UNL1        0.1392
      6 C          18.0131   39.9703   34.0451 C.ar    1  UNL1        0.0369
      7 C          19.3860   40.1130   33.9676 C.ar    1  UNL1        0.0033
      8 C          20.0582   39.7483   32.8190 C.ar    1  UNL1        0.0047
      9 C          19.3512   39.2334   31.7309 C.ar    1  UNL1        0.0566
     10 C          17.9645   39.0953   31.8088 C.ar    1  UNL1        0.0414
     11 O          15.9514   39.3210   33.0502 O.3     1  UNL1       -0.4706
     12 C          15.1606   40.1699   32.2158 C.3     1  UNL1        0.2320
     13 C          12.4452   37.7914   29.9317 C.ar    1  UNL1       -0.0000
     14 C          13.7738   37.8739   29.5591 C.ar    1  UNL1       -0.0002
     15 C          14.6525   38.6438   30.2981 C.ar    1  UNL1       -0.0007
     16 C          14.2027   39.3309   31.4100 C.ar    1  UNL1        0.0212
     17 C          12.8752   39.2440   31.7859 C.ar    1  UNL1       -0.0007
     18 C          11.9954   38.4786   31.0437 C.ar    1  UNL1       -0.0002
     19 C          21.9772   38.9214   29.1590 C.2     1  UNL1       -0.0344
     20 S          22.8040   37.4240   29.0891 S.2     1  UNL1       -0.0617
     21 N          21.9795   39.7431   28.0906 N.am    1  UNL1       -0.6258
     22 C          22.5687   41.0083   28.1826 C.ar    1  UNL1       -0.1006
     23 C          21.8354   42.0840   28.6672 C.ar    1  UNL1       -0.0230
     24 C          22.4199   43.3319   28.7565 C.ar    1  UNL1       -0.0018
     25 C          23.7341   43.5113   28.3644 C.ar    1  UNL1        0.0016
     26 C          24.4683   42.4415   27.8866 C.ar    1  UNL1        0.0222
     27 C          23.8878   41.1919   27.7894 C.ar    1  UNL1        0.1201
     28 N          24.6729   40.0485   27.2725 N.pl3   1  UNL1        0.0558
     29 O          24.5448   39.6960   26.1136 O.2     1  UNL1       -0.1262
     30 O          25.4507   39.4632   28.0046 O.2     1  UNL1       -0.1262
@<TRIPOS>UNITY_ATOM_ATTR
21 1
charge -1
@<TRIPOS>BOND
     1    13    18   ar
     2    13    14   ar
     3    14    15   ar
     4    15    16   ar
     5    16    17   ar
     6    16    12    1
     7    17    18   ar
     8    12    11    1
     9    11     5    1
    10     5    10   ar
    11     5     6   ar
    12     6     7   ar
    13     7     8   ar
    14     8     9   ar
    15     9    10   ar
    16     9     1    1
    17     1     2    2
    18     1     3   am
    19     3    19    1
    20    19    20    2
    21    19    21    1
    22    21    22    1
    23    22    27   ar
    24    22    23   ar
    25    23    24   ar
    26    24    25   ar
    27    25    26   ar
    28    26    27   ar
    29    27    28    1
    30    28    29    2
    31    28    30    2
    32     3     4    1
@<TRIPOS>MOLECULE
ZINC27562600
 30 32 0 0 0
SMALL
GASTEIGER

@<TRIPOS>ATOM
      1 C          25.2514   39.6271   27.6489 C.ar    1  UNL1        0.2076
      2 N          24.3525   39.3327   26.7403 N.ar    1  UNL1       -0.2001
      3 C          23.4492   38.4989   27.2621 C.ar    1  UNL1        0.2022
      4 C          23.8709   38.2747   28.6551 C.ar    1  UNL1        0.2438
      5 O          24.9905   39.0156   28.8090 O.2     1  UNL1       -0.4227
      6 C          25.0831   43.1425   27.5776 C.3     1  UNL1        0.0000
      7 C          24.9049   42.2249   26.3662 C.3     1  UNL1        0.0005
      8 C          26.1718   41.3903   26.1680 C.3     1  UNL1        0.0092
      9 C          26.4251   40.5432   27.4167 C.3     1  UNL1        0.0767
     10 C          26.6032   41.4609   28.6281 C.3     1  UNL1        0.0092
     11 C          25.3363   42.2955   28.8263 C.3     1  UNL1        0.0005
     12 C          23.8161   43.9770   27.7758 C.3     1  UNL1        0.0000
     13 C          23.0494   43.4587   28.9942 C.3     1  UNL1        0.0000
     14 C          21.7437   41.3830   28.5156 C.3     1  UNL1        0.0000
     15 C          21.6920   42.9119   28.5478 C.3     1  UNL1        0.0000
     16 N          23.2732   37.5097   29.5696 N.pl3   1  UNL1       -0.2039
     17 H          23.4944   36.5523   29.6312 H       1  UNL1        0.1775
     18 N          22.4052   38.0242   30.3734 N.2     1  UNL1       -0.1774
     19 C          21.1357   38.1097   30.0098 C.2     1  UNL1        0.1176
     20 C          20.1827   38.6745   30.8924 C.ar    1  UNL1        0.0208
     21 C          20.6036   39.4641   31.9791 C.ar    1  UNL1        0.0033
     22 C          19.6723   40.0110   32.8236 C.ar    1  UNL1        0.0241
     23 C          18.3200   39.7839   32.6137 C.ar    1  UNL1        0.1429
     24 C          17.8943   39.0031   31.5491 C.ar    1  UNL1        0.0241
     25 C          18.8081   38.4459   30.6924 C.ar    1  UNL1        0.0033
     26 N          17.3236   40.3798   33.5324 N.pl3   1  UNL1        0.0577
     27 O          16.3835   39.6256   34.0633 O.2     1  UNL1       -0.1261
     28 O          17.3774   41.6642   33.8188 O.2     1  UNL1       -0.1261
     29 C          22.3071   37.9395   26.6037 C.1     1  UNL1        0.1245
     30 N          21.4012   37.4956   26.0815 N.1     1  UNL1       -0.1891
@<TRIPOS>BOND
     1    14    15    1
     2    15    13    1
     3    13    12    1
     4    12     6    1
     5     6    11    1
     6     6     7    1
     7     7     8    1
     8     8     9    1
     9     9    10    1
    10     9     1    1
    11    10    11    1
    12     1     5   ar
    13     1     2   ar
    14     2     3   ar
    15     3     4   ar
    16     3    29    1
    17     4     5   ar
    18     4    16    1
    19    16    18    1
    20    18    19    2
    21    19    20    1
    22    20    25   ar
    23    20    21   ar
    24    21    22   ar
    25    22    23   ar
    26    23    24   ar
    27    23    26    1
    28    24    25   ar
    29    26    27    2
    30    26    28    2
    31    29    30    3
    32    16    17    1
@<TRIPOS>MOLECULE
ZINC31843490
 29 32 0 0 0
SMALL
GASTEIGER

@<TRIPOS>ATOM
      1 C          12.9717   36.7042   27.9382 C.3     1  UNL1        0.1496
      2 C          12.1694   37.2559   26.7881 C.ar    1  UNL1        0.2479
      3 N          12.0923   38.5120   26.4251 N.ar    1  UNL1       -0.1900
      4 C          11.2630   38.5312   25.3572 C.ar    1  UNL1        0.2034
      5 N          10.8961   37.2966   25.1312 N.ar    1  UNL1       -0.0560
      6 O          11.4074   36.5546   25.9429 O.2     1  UNL1       -0.3361
      7 C          10.8514   39.7285   24.5827 C.ar    1  UNL1        0.0408
      8 C          10.1699   40.7682   25.2123 C.ar    1  UNL1        0.0033
      9 C           9.7945   41.8817   24.4885 C.ar    1  UNL1        0.0018
     10 C          10.0831   41.9616   23.1380 C.ar    1  UNL1        0.0241
     11 C          10.7589   40.9324   22.5080 C.ar    1  UNL1        0.1430
     12 C          11.1445   39.8167   23.2237 C.ar    1  UNL1        0.0272
     13 N          11.0696   41.0276   21.0640 N.pl3   1  UNL1        0.0577
     14 O          10.2597   41.5179   20.2978 O.2     1  UNL1       -0.1261
     15 O          12.1353   40.6156   20.6419 O.2     1  UNL1       -0.1261
     16 S          12.6426   37.6803   29.4265 S.3     1  UNL1       -0.1077
     17 C          16.0428   38.8569   30.9498 C.ar    1  UNL1        0.1418
     18 N          14.6736   38.7467   31.0272 N.ar    1  UNL1       -0.2447
     19 C          14.2902   38.1054   29.8841 C.ar    1  UNL1        0.0087
     20 N          15.3794   37.8644   29.1888 N.ar    1  UNL1       -0.5546
     21 N          16.4105   38.3035   29.8177 N.ar    1  UNL1       -0.3483
     22 C          18.5982   40.6490   33.8309 C.ar    1  UNL1       -0.0222
     23 C          17.2804   41.0581   33.7299 C.ar    1  UNL1       -0.0042
     24 C          16.4452   40.4802   32.7962 C.ar    1  UNL1        0.0027
     25 C          16.9323   39.4808   31.9524 C.ar    1  UNL1        0.0343
     26 C          18.2613   39.0691   32.0630 C.ar    1  UNL1        0.0027
     27 C          19.0874   39.6587   32.9975 C.ar    1  UNL1       -0.0042
     28 C          20.6223   40.3063   35.2219 C.3     1  UNL1        0.0050
     29 C          19.5047   41.2842   34.8536 C.3     1  UNL1        0.0264
@<TRIPOS>UNITY_ATOM_ATTR
20 1
charge -1
@<TRIPOS>BOND
     1    28    29    1
     2    29    22    1
     3    22    27   ar
     4    22    23   ar
     5    23    24   ar
     6    24    25   ar
     7    25    26   ar
     8    25    17    1
     9    26    27   ar
    10    17    18   ar
    11    17    21   ar
    12    18    19   ar
    13    19    16    1
    14    19    20   ar
    15    20    21   ar
    16    16     1    1
    17     1     2    1
    18     2     6   ar
    19     2     3   ar
    20     3     4   ar
    21     4     5   ar
    22     4     7    1
    23     5     6   ar
    24     7    12   ar
    25     7     8   ar
    26     8     9   ar
    27     9    10   ar
    28    10    11   ar
    29    11    12   ar
    30    11    13    1
    31    13    14    2
    32    13    15    2
@<TRIPOS>MOLECULE
ZINC02649444
 31 33 0 0 0
SMALL
GASTEIGER

@<TRIPOS>ATOM
      1 N          24.9301   36.4999   29.9313 N.am    1  UNL1       -0.2809
      2 C          25.1986   37.7950   29.6725 C.2     1  UNL1        0.2708
      3 O          25.8766   38.4398   30.4443 O.2     1  UNL1       -0.2707
      4 H          24.3144   35.9989   29.3489 H       1  UNL1        0.1550
      5 C          26.6437   35.0473   30.8412 C.ar    1  UNL1        0.0135
      6 C          27.2324   34.4257   31.9399 C.ar    1  UNL1        0.0012
      7 C          26.7061   34.6137   33.2017 C.ar    1  UNL1        0.0001
      8 C          25.5972   35.4223   33.3818 C.ar    1  UNL1        0.0013
      9 C          25.0071   36.0476   32.3006 C.ar    1  UNL1        0.0147
     10 C          25.5256   35.8682   31.0263 C.ar    1  UNL1        0.0503
     11 C          28.2436   34.4662   26.9452 C.ar    1  UNL1        0.0000
     12 C          27.3976   33.5176   27.4913 C.ar    1  UNL1        0.0000
     13 C          26.8753   33.7011   28.7554 C.ar    1  UNL1        0.0000
     14 C          27.2022   34.8444   29.4825 C.ar    1  UNL1        0.0012
     15 C          28.0512   35.7990   28.9253 C.ar    1  UNL1        0.0000
     16 C          28.5714   35.6028   27.6622 C.ar    1  UNL1        0.0000
     17 C          24.6565   38.4421   28.4241 C.3     1  UNL1        0.2930
     18 O          23.6220   39.3631   28.7756 O.3     1  UNL1       -0.4353
     19 C          22.3499   38.9605   28.5766 C.2     1  UNL1        0.3419
     20 O          22.0742   38.2694   27.6144 O.2     1  UNL1       -0.2449
     21 C          21.3013   39.3600   29.5143 C.2     1  UNL1        0.0819
     22 C          20.5557   38.4209   30.1326 C.2     1  UNL1        0.0067
     23 C          19.5004   38.8230   31.0763 C.ar    1  UNL1        0.0003
     24 C          19.8390   39.3596   32.3226 C.ar    1  UNL1        0.0017
     25 C          18.8445   39.7384   33.1994 C.ar    1  UNL1        0.0241
     26 C          17.5140   39.5793   32.8528 C.ar    1  UNL1        0.1429
     27 C          17.1707   39.0437   31.6236 C.ar    1  UNL1        0.0241
     28 C          18.1537   38.6650   30.7338 C.ar    1  UNL1        0.0017
     29 N          16.4526   39.9837   33.8019 N.pl3   1  UNL1        0.0577
     30 O          15.7500   39.1382   34.3262 O.2     1  UNL1       -0.1261
     31 O          16.2818   41.1620   34.0586 O.2     1  UNL1       -0.1261
@<TRIPOS>BOND
     1    11    16   ar
     2    11    12   ar
     3    12    13   ar
     4    13    14   ar
     5    14    15   ar
     6    14     5    1
     7    15    16   ar
     8     5    10   ar
     9     5     6   ar
    10     6     7   ar
    11     7     8   ar
    12     8     9   ar
    13     9    10   ar
    14    10     1    1
    15     1     2   am
    16     2     3    2
    17     2    17    1
    18    17    18    1
    19    18    19    1
    20    19    20    2
    21    19    21    1
    22    21    22    2
    23    22    23    1
    24    23    28   ar
    25    23    24   ar
    26    24    25   ar
    27    25    26   ar
    28    26    27   ar
    29    26    29    1
    30    27    28   ar
    31    29    30    2
    32    29    31    2
    33     1     4    1
@<TRIPOS>MOLECULE
ZINC08903198
 29 31 0 0 0
SMALL
GASTEIGER

@<TRIPOS>ATOM
      1 C          24.9912   38.7252   29.0661 C.ar    1  UNL1        0.0762
      2 C          24.6490   37.5434   29.7396 C.ar    1  UNL1        0.0080
      3 C          23.3581   37.2302   30.0080 C.ar    1  UNL1        0.0199
      4 C          22.3003   38.0889   29.6165 C.ar    1  UNL1        0.0893
      5 C          22.6712   39.2761   28.9379 C.ar    1  UNL1        0.0499
      6 C          23.9721   39.5963   28.6649 C.ar    1  UNL1        0.0145
      7 S          21.0972   40.0401   28.6273 S.2     1  UNL1       -0.0514
      8 C          20.0857   38.7851   29.4000 C.ar    1  UNL1        0.1657
      9 N          20.9838   37.9163   29.8093 N.ar    1  UNL1       -0.2239
     10 N          18.7099   38.7371   29.5288 N.am    1  UNL1       -0.2606
     11 C          18.1384   38.9399   30.7325 C.2     1  UNL1        0.2509
     12 O          18.8326   39.1599   31.7055 O.2     1  UNL1       -0.2698
     13 H          18.1478   38.5549   28.7413 H       1  UNL1        0.1571
     14 C          16.6678   38.8887   30.8701 C.ar    1  UNL1        0.0538
     15 C          16.0617   39.2763   32.0665 C.ar    1  UNL1        0.0062
     16 C          14.6882   39.2311   32.1864 C.ar    1  UNL1        0.0242
     17 C          13.9122   38.7921   31.1282 C.ar    1  UNL1        0.1429
     18 C          14.5070   38.4016   29.9414 C.ar    1  UNL1        0.0242
     19 C          15.8791   38.4473   29.8061 C.ar    1  UNL1        0.0062
     20 N          12.4395   38.7404   31.2661 N.pl3   1  UNL1        0.0577
     21 O          11.7981   39.7732   31.3405 O.2     1  UNL1       -0.1261
     22 O          11.8688   37.6651   31.3054 O.2     1  UNL1       -0.1261
     23 C          26.4019   39.0442   28.7849 C.2     1  UNL1        0.3412
     24 O          27.2873   38.3971   29.3086 O.2     1  UNL1       -0.2449
     25 O          26.7105   40.0535   27.9468 O.3     1  UNL1       -0.4454
     26 C          27.3468   41.2220   28.5284 C.3     1  UNL1        0.2088
     27 C          27.1441   42.4254   27.6055 C.3     1  UNL1        0.0475
     28 C          25.2379   43.0792   29.0825 C.3     1  UNL1        0.0001
     29 C          26.5127   43.5734   28.3957 C.3     1  UNL1        0.0038
@<TRIPOS>BOND
     1    28    29    1
     2    29    27    1
     3    27    26    1
     4    26    25    1
     5    25    23    1
     6    23    24    2
     7    23     1    1
     8     1     6   ar
     9     1     2   ar
    10     2     3   ar
    11     3     4   ar
    12     4     9   ar
    13     4     5   ar
    14     5     6   ar
    15     5     7   ar
    16     7     8   ar
    17     8     9   ar
    18     8    10    1
    19    10    11   am
    20    11    12    2
    21    11    14    1
    22    14    19   ar
    23    14    15   ar
    24    15    16   ar
    25    16    17   ar
    26    17    18   ar
    27    17    20    1
    28    18    19   ar
    29    20    21    2
    30    20    22    2
    31    10    13    1
@<TRIPOS>MOLECULE
ZINC06371408
 32 34 0 0 0
SMALL
GASTEIGER

@<TRIPOS>ATOM
      1 C          22.5065   38.1198   30.7257 C.2     1  UNL1        0.0065
      2 C          21.6476   38.3923   29.7037 C.2     1  UNL1        0.0757
      3 C          26.1138   38.3581   29.7330 C.ar    1  UNL1        0.1719
      4 C          24.8084   38.7164   30.0036 C.ar    1  UNL1        0.0400
      5 C          23.8952   37.7463   30.4369 C.ar    1  UNL1        0.0034
      6 C          24.3127   36.4180   30.5927 C.ar    1  UNL1        0.0033
      7 C          25.6170   36.0705   30.3202 C.ar    1  UNL1        0.0398
      8 C          26.5212   37.0336   29.8913 C.ar    1  UNL1        0.1677
      9 O          27.8063   36.6843   29.6247 O.3     1  UNL1       -0.5029
     10 H          28.4177   37.3327   29.3352 H       1  UNL1        0.2923
     11 O          27.0031   39.2970   29.3124 O.3     1  UNL1       -0.4724
     12 C          26.8800   39.0806   26.9085 C.3     1  UNL1        0.0512
     13 C          26.6817   40.0035   28.1126 C.3     1  UNL1        0.2057
     14 C          22.1517   38.4682   28.3131 C.ar    1  UNL1        0.0062
     15 C          21.9868   37.3862   27.4484 C.ar    1  UNL1        0.0002
     16 C          22.4530   37.4653   26.1522 C.ar    1  UNL1        0.0000
     17 C          23.0935   38.6104   25.7132 C.ar    1  UNL1        0.0000
     18 C          23.2656   39.6846   26.5679 C.ar    1  UNL1        0.0000
     19 C          22.7983   39.6199   27.8645 C.ar    1  UNL1        0.0002
     20 C          20.2221   38.6106   29.9810 C.2     1  UNL1        0.3415
     21 O          19.5033   39.0919   29.1264 O.2     1  UNL1       -0.2449
     22 O          19.7103   38.2774   31.1832 O.3     1  UNL1       -0.4404
     23 C          18.6657   39.1341   31.7154 C.3     1  UNL1        0.2370
     24 C          19.1428   39.7730   32.9941 C.ar    1  UNL1        0.0437
     25 C          20.4493   39.5954   33.4101 C.ar    1  UNL1        0.0010
     26 C          20.8883   40.1853   34.5804 C.ar    1  UNL1       -0.0001
     27 C          20.0180   40.9444   35.3405 C.ar    1  UNL1        0.0017
     28 C          18.7105   41.1177   34.9274 C.ar    1  UNL1        0.0239
     29 C          18.2729   40.5319   33.7541 C.ar    1  UNL1        0.1424
     30 N          16.8724   40.7170   33.3120 N.pl3   1  UNL1        0.0575
     31 O          16.0736   39.8040   33.4207 O.2     1  UNL1       -0.1261
     32 O          16.5189   41.7825   32.8393 O.2     1  UNL1       -0.1261
@<TRIPOS>BOND
     1    12    13    1
     2    13    11    1
     3    11     3    1
     4     3     8   ar
     5     3     4   ar
     6     4     5   ar
     7     5     6   ar
     8     5     1    1
     9     6     7   ar
    10     7     8   ar
    11     8     9    1
    12     1     2    2
    13     2    14    1
    14     2    20    1
    15    14    19   ar
    16    14    15   ar
    17    15    16   ar
    18    16    17   ar
    19    17    18   ar
    20    18    19   ar
    21    20    21    2
    22    20    22    1
    23    22    23    1
    24    23    24    1
    25    24    29   ar
    26    24    25   ar
    27    25    26   ar
    28    26    27   ar
    29    27    28   ar
    30    28    29   ar
    31    29    30    1
    32    30    31    2
    33    30    32    2
    34     9    10    1
@<TRIPOS>MOLECULE
ZINC17043685
 30 32 0 0 0
SMALL
GASTEIGER

@<TRIPOS>ATOM
      1 N          19.6833   38.9859   31.1689 N.ar    1  UNL1       -0.2991
      2 C          19.6389   39.3568   32.4971 C.ar    1  UNL1        0.0654
      3 C          20.8165   39.4803   33.2301 C.ar    1  UNL1        0.0174
      4 C          20.7644   39.8515   34.5560 C.ar    1  UNL1        0.0015
      5 C          19.5470   40.1050   35.1727 C.ar    1  UNL1        0.0002
      6 C          18.3787   39.9849   34.4756 C.ar    1  UNL1        0.0046
      7 C          18.4081   39.6146   33.1261 C.ar    1  UNL1        0.0550
      8 C          17.1640   39.4860   32.3603 C.ar    1  UNL1        0.2017
      9 C          17.2493   39.1084   31.0180 C.ar    1  UNL1        0.0926
     10 C          18.5661   38.8575   30.4333 C.ar    1  UNL1        0.2059
     11 O          18.6513   38.5275   29.2638 O.3     1  UNL1       -0.4930
     12 O          15.9681   39.7261   32.9373 O.2     1  UNL1       -0.2863
     13 H          19.4919   38.3652   28.8828 H       1  UNL1        0.2937
     14 C          16.0349   38.9660   30.2062 C.2     1  UNL1        0.0069
     15 O          15.2975   39.9199   30.0422 O.co2   1  UNL1       -0.8595
     16 N          15.7364   37.7787   29.6425 N.2     1  UNL1       -0.2357
     17 C          14.6457   37.6697   28.7882 C.ar    1  UNL1        0.2146
     18 N          14.5998   37.6334   27.4635 N.ar    1  UNL1       -0.1214
     19 N          13.5094   37.5296   26.8383 N.ar    1  UNL1       -0.1438
     20 C          12.3491   37.4508   27.4588 C.ar    1  UNL1        0.1126
     21 S          12.8999   37.5300   29.1607 S.2     1  UNL1       -0.0306
     22 C          10.9567   37.3240   26.8964 C.3     1  UNL1        0.0545
     23 C          10.9179   37.9261   25.4903 C.3     1  UNL1        0.0065
     24 C          10.3830   36.8853   24.5046 C.3     1  UNL1        0.0004
     25 C          10.0016   39.1514   25.4854 C.3     1  UNL1        0.0004
     26 C          20.9825   38.7257   30.5441 C.3     1  UNL1        0.1089
     27 C          21.3365   39.8797   29.6038 C.3     1  UNL1        0.0246
     28 C          22.2411   39.3648   28.4824 C.3     1  UNL1        0.0020
     29 C          21.4481   37.8140   26.6912 C.3     1  UNL1        0.0000
     30 C          21.8751   37.9153   28.1569 C.3     1  UNL1        0.0001
@<TRIPOS>UNITY_ATOM_ATTR
15 1
charge -1
@<TRIPOS>BOND
     1    29    30    1
     2    30    28    1
     3    28    27    1
     4    27    26    1
     5    26     1    1
     6     1    10   ar
     7     1     2   ar
     8     2     7   ar
     9     2     3   ar
    10     3     4   ar
    11     4     5   ar
    12     5     6   ar
    13     6     7   ar
    14     7     8   ar
    15     8     9   ar
    16     8    12    2
    17     9    10   ar
    18     9    14    1
    19    10    11    1
    20    14    15    1
    21    14    16    2
    22    16    17    1
    23    17    21   ar
    24    17    18   ar
    25    18    19   ar
    26    19    20   ar
    27    20    21   ar
    28    20    22    1
    29    22    23    1
    30    23    24    1
    31    23    25    1
    32    11    13    1
@<TRIPOS>MOLECULE
ZINC31011547
 29 30 0 0 0
SMALL
GASTEIGER

@<TRIPOS>ATOM
      1 C          20.0044   38.5948   29.5846 C.2     1  UNL1        0.2673
      2 O          19.8911   37.3877   29.5555 O.2     1  UNL1       -0.2711
      3 N          19.5198   39.2922   30.6312 N.am    1  UNL1       -0.2992
      4 H          19.6118   40.2721   30.6549 H       1  UNL1        0.1498
      5 C          18.8562   38.5920   31.7337 C.3     1  UNL1        0.0942
      6 C          19.4729   39.0330   33.0627 C.3     1  UNL1        0.0262
      7 C          17.3863   38.9242   31.7274 C.ar    1  UNL1       -0.0045
      8 C          16.7807   39.4025   32.8743 C.ar    1  UNL1       -0.0030
      9 C          15.4335   39.7117   32.8671 C.ar    1  UNL1       -0.0045
     10 C          14.6894   39.5328   31.7158 C.ar    1  UNL1       -0.0222
     11 C          15.2939   39.0497   30.5704 C.ar    1  UNL1       -0.0045
     12 C          16.6423   38.7454   30.5761 C.ar    1  UNL1       -0.0030
     13 C          13.2193   39.8642   31.7097 C.3     1  UNL1        0.0263
     14 C          12.4575   38.7895   30.9315 C.3     1  UNL1        0.0044
     15 C          12.3301   37.5308   31.7918 C.3     1  UNL1        0.0003
     16 C          11.0625   39.3086   30.5777 C.3     1  UNL1        0.0003
     17 C          20.6871   39.3151   28.4504 C.3     1  UNL1        0.2927
     18 O          20.5561   38.5349   27.2330 O.3     1  UNL1       -0.4350
     19 C          21.6872   38.0124   26.7158 C.2     1  UNL1        0.3478
     20 O          21.6236   37.1189   25.8930 O.2     1  UNL1       -0.2443
     21 C          26.4211   40.7918   27.7610 C.3     1  UNL1        0.0399
     22 C          25.2497   39.8514   27.6407 C.ar    1  UNL1        0.0302
     23 C          25.0883   38.6269   28.2080 C.ar    1  UNL1        0.1455
     24 C          23.9338   37.9248   27.9697 C.ar    1  UNL1        0.0372
     25 C          22.9912   38.5208   27.1448 C.ar    1  UNL1        0.1065
     26 S          23.7814   40.0696   26.7450 S.2     1  UNL1       -0.0832
     27 N          26.1456   38.0576   29.0734 N.pl3   1  UNL1        0.0579
     28 O          26.1832   38.3431   30.2568 O.2     1  UNL1       -0.1261
     29 O          26.9779   37.3036   28.6020 O.2     1  UNL1       -0.1261
@<TRIPOS>BOND
     1    21    22    1
     2    22    26   ar
     3    22    23   ar
     4    23    24   ar
     5    23    27    1
     6    24    25   ar
     7    25    26   ar
     8    25    19    1
     9    19    20    2
    10    19    18    1
    11    18    17    1
    12    17     1    1
    13     1     2    2
    14     1     3   am
    15     3     5    1
    16     5     6    1
    17     5     7    1
    18     7    12   ar
    19     7     8   ar
    20     8     9   ar
    21     9    10   ar
    22    10    11   ar
    23    10    13    1
    24    11    12   ar
    25    13    14    1
    26    14    15    1
    27    14    16    1
    28    27    28    2
    29    27    29    2
    30     3     4    1
@<TRIPOS>MOLECULE
ZINC03239873
 29 30 0 0 0
SMALL
GASTEIGER

@<TRIPOS>ATOM
      1 C          22.8209   39.3851   28.7731 C.ar    1  UNL1        0.0923
      2 C          24.0138   38.9916   28.1550 C.ar    1  UNL1        0.0477
      3 C          24.7192   37.9132   28.6455 C.ar    1  UNL1        0.1727
      4 C          24.2471   37.2122   29.7567 C.ar    1  UNL1        0.1736
      5 C          23.0709   37.5986   30.3782 C.ar    1  UNL1        0.0549
      6 C          22.3494   38.6779   29.8908 C.ar    1  UNL1        0.0600
      7 N          21.1634   39.0627   30.5117 N.am    1  UNL1       -0.2797
      8 C          20.0312   38.3648   30.2936 C.2     1  UNL1        0.2555
      9 O          20.0261   37.4483   29.4927 O.2     1  UNL1       -0.2693
     10 H          21.1522   39.8446   31.1098 H       1  UNL1        0.1552
     11 C          18.8050   38.7132   31.0162 C.ar    1  UNL1        0.0831
     12 C          17.4897   38.6623   30.5808 C.ar    1  UNL1        0.0116
     13 C          16.5209   39.0494   31.4727 C.ar    1  UNL1        0.0076
     14 C          16.8880   39.4564   32.7161 C.ar    1  UNL1        0.0356
     15 S          18.6149   39.3061   32.6881 S.2     1  UNL1       -0.0819
     16 C          22.0646   40.5353   28.2541 C.2     1  UNL1        0.3429
     17 O          20.8496   40.5067   28.2386 O.2     1  UNL1       -0.2448
     18 O          22.7191   41.6208   27.7956 O.3     1  UNL1       -0.4372
     19 C          22.8948   42.7248   28.7221 C.3     1  UNL1        0.2723
     20 C          23.9049   43.6936   28.1635 C.2     1  UNL1        0.1938
     21 O          23.6402   44.3413   27.1792 O.2     1  UNL1       -0.2922
     22 C          25.7679   42.4824   29.2639 C.3     1  UNL1        0.0075
     23 C          25.2453   43.8543   28.8331 C.3     1  UNL1        0.0553
     24 C          26.2322   44.4910   27.8525 C.3     1  UNL1        0.0075
     25 C          25.0968   44.7526   30.0627 C.3     1  UNL1        0.0075
     26 O          24.9471   36.1512   30.2343 O.3     1  UNL1       -0.4683
     27 C          24.8414   35.8809   31.6334 C.3     1  UNL1        0.2526
     28 O          25.8785   37.5310   28.0446 O.3     1  UNL1       -0.4684
     29 C          26.9643   38.4595   28.0798 C.3     1  UNL1        0.2526
@<TRIPOS>BOND
     1    22    23    1
     2    23    24    1
     3    23    25    1
     4    23    20    1
     5    20    21    2
     6    20    19    1
     7    19    18    1
     8    18    16    1
     9    16    17    2
    10    16     1    1
    11     1     6   ar
    12     1     2   ar
    13     2     3   ar
    14     3     4   ar
    15     3    28    1
    16     4     5   ar
    17     4    26    1
    18     5     6   ar
    19     6     7    1
    20     7     8   am
    21     8     9    2
    22     8    11    1
    23    11    15   ar
    24    11    12   ar
    25    12    13   ar
    26    13    14   ar
    27    14    15   ar
    28    26    27    1
    29    28    29    1
    30     7    10    1
@<TRIPOS>MOLECULE
ZINC01036413
 29 31 0 0 0
SMALL
GASTEIGER

@<TRIPOS>ATOM
      1 C          20.5885   38.0726   29.3498 C.ar    1  UNL1        0.0958
      2 C          19.3234   38.2619   29.9074 C.ar    1  UNL1        0.0147
      3 C          19.2550   38.8310   31.1412 C.ar    1  UNL1        0.0309
      4 S          20.9696   39.1043   31.5446 S.2     1  UNL1       -0.0720
      5 C          21.6922   38.4808   30.0980 C.ar    1  UNL1        0.0872
      6 C          18.0567   39.1401   31.9493 C.ar    1  UNL1        0.0060
      7 C          16.7825   38.9905   31.3992 C.ar    1  UNL1        0.0005
      8 C          15.6681   39.2752   32.1608 C.ar    1  UNL1        0.0000
      9 C          15.8115   39.7191   33.4633 C.ar    1  UNL1        0.0000
     10 C          17.0717   39.8750   34.0129 C.ar    1  UNL1        0.0000
     11 C          18.1943   39.5882   33.2641 C.ar    1  UNL1        0.0005
     12 N          23.0335   38.4020   29.7691 N.am    1  UNL1       -0.2753
     13 C          23.6097   39.3850   29.0491 C.2     1  UNL1        0.2499
     14 O          22.9507   40.3406   28.6886 O.2     1  UNL1       -0.2698
     15 H          23.5673   37.6280   30.0610 H       1  UNL1        0.1556
     16 C          25.0428   39.3008   28.6978 C.ar    1  UNL1        0.0553
     17 C          25.5800   38.1013   28.2267 C.ar    1  UNL1        0.0046
     18 C          26.9181   38.0297   27.9002 C.ar    1  UNL1        0.0018
     19 C          27.7280   39.1432   28.0392 C.ar    1  UNL1        0.0241
     20 C          27.2033   40.3334   28.5105 C.ar    1  UNL1        0.1430
     21 C          25.8651   40.4203   28.8352 C.ar    1  UNL1        0.0286
     22 N          28.0783   41.5176   28.6617 N.pl3   1  UNL1        0.0577
     23 O          28.9036   41.5548   29.5567 O.2     1  UNL1       -0.1261
     24 O          27.9730   42.4549   27.8911 O.2     1  UNL1       -0.1261
     25 C          20.7513   37.4673   28.0255 C.2     1  UNL1        0.3429
     26 O          20.4945   36.2902   27.8592 O.2     1  UNL1       -0.2448
     27 O          21.1861   38.2155   26.9909 O.3     1  UNL1       -0.4454
     28 C          23.1300   38.4776   25.5477 C.3     1  UNL1        0.0513
     29 C          21.9986   37.5475   25.9899 C.3     1  UNL1        0.2089
@<TRIPOS>BOND
     1    28    29    1
     2    29    27    1
     3    27    25    1
     4    25    26    2
     5    25     1    1
     6     1     5   ar
     7     1     2   ar
     8     2     3   ar
     9     3     4   ar
    10     3     6    1
    11     4     5   ar
    12     5    12    1
    13    12    13   am
    14    13    14    2
    15    13    16    1
    16    16    21   ar
    17    16    17   ar
    18    17    18   ar
    19    18    19   ar
    20    19    20   ar
    21    20    21   ar
    22    20    22    1
    23    22    23    2
    24    22    24    2
    25     6    11   ar
    26     6     7   ar
    27     7     8   ar
    28     8     9   ar
    29     9    10   ar
    30    10    11   ar
    31    12    15    1
@<TRIPOS>MOLECULE
ZINC14818449
 31 33 0 0 0
SMALL
GASTEIGER

@<TRIPOS>ATOM
      1 N          21.6427   38.8695   30.3781 N.am    1  UNL1       -0.2780
      2 C          20.4592   38.2549   30.1828 C.2     1  UNL1        0.2496
      3 O          20.3850   37.3047   29.4280 O.2     1  UNL1       -0.2698
      4 H          21.6879   39.6890   30.9217 H       1  UNL1        0.1553
      5 C          23.2305   38.7775   28.5535 C.ar    1  UNL1        0.1586
      6 C          24.3848   38.2523   27.9946 C.ar    1  UNL1        0.0388
      7 C          25.1138   37.2993   28.6811 C.ar    1  UNL1        0.0032
      8 C          24.6949   36.8670   29.9261 C.ar    1  UNL1        0.0015
      9 C          23.5479   37.3894   30.4930 C.ar    1  UNL1        0.0178
     10 C          22.8079   38.3423   29.8080 C.ar    1  UNL1        0.0856
     11 O          22.5127   39.7151   27.8799 O.3     1  UNL1       -0.4522
     12 C          24.0148   45.1128   28.4549 C.3     1  UNL1        0.0310
     13 C          23.6130   43.6686   28.3013 C.ar    1  UNL1       -0.0217
     14 C          22.3602   43.2532   28.7135 C.ar    1  UNL1       -0.0011
     15 C          21.9893   41.9299   28.5736 C.ar    1  UNL1        0.0372
     16 C          22.8751   41.0172   28.0187 C.ar    1  UNL1        0.1453
     17 C          24.1338   41.4356   27.6111 C.ar    1  UNL1        0.0372
     18 C          24.4977   42.7611   27.7481 C.ar    1  UNL1       -0.0011
     19 C          19.2513   38.7364   30.8860 C.ar    1  UNL1        0.0555
     20 C          17.9897   38.5181   30.3362 C.ar    1  UNL1        0.0111
     21 C          16.8564   38.9756   31.0055 C.ar    1  UNL1        0.0774
     22 C          16.9923   39.6547   32.2194 C.ar    1  UNL1        0.0305
     23 C          18.2449   39.8620   32.7613 C.ar    1  UNL1        0.1432
     24 C          19.3722   39.4115   32.1029 C.ar    1  UNL1        0.0286
     25 N          18.3808   40.5758   34.0508 N.pl3   1  UNL1        0.0577
     26 O          19.1108   40.1315   34.9189 O.2     1  UNL1       -0.1261
     27 O          17.7627   41.6073   34.2440 O.2     1  UNL1       -0.1261
     28 C          15.5146   38.7486   30.4302 C.2     1  UNL1        0.3414
     29 O          14.5274   38.8604   31.1290 O.2     1  UNL1       -0.2449
     30 O          15.3861   38.4178   29.1307 O.3     1  UNL1       -0.4413
     31 C          14.7204   37.1623   28.8327 C.3     1  UNL1        0.2560
@<TRIPOS>BOND
     1    12    13    1
     2    13    18   ar
     3    13    14   ar
     4    14    15   ar
     5    15    16   ar
     6    16    17   ar
     7    16    11    1
     8    17    18   ar
     9    11     5    1
    10     5    10   ar
    11     5     6   ar
    12     6     7   ar
    13     7     8   ar
    14     8     9   ar
    15     9    10   ar
    16    10     1    1
    17     1     2   am
    18     2     3    2
    19     2    19    1
    20    19    24   ar
    21    19    20   ar
    22    20    21   ar
    23    21    22   ar
    24    21    28    1
    25    22    23   ar
    26    23    24   ar
    27    23    25    1
    28    25    26    2
    29    25    27    2
    30    28    29    2
    31    28    30    1
    32    30    31    1
    33     1     4    1
@<TRIPOS>MOLECULE
ZINC10616856
 28 29 0 0 0
SMALL
GASTEIGER

@<TRIPOS>ATOM
      1 N          23.3892   38.8057   29.5997 N.am    1  UNL1       -0.2787
      2 C          24.1576   37.7366   29.8879 C.2     1  UNL1        0.2265
      3 O          23.6431   36.7005   30.2524 O.2     1  UNL1       -0.2748
      4 H          23.8069   39.6467   29.3039 H       1  UNL1        0.1553
      5 C          21.0730   38.4430   28.7310 C.ar    1  UNL1        0.0975
      6 C          19.6883   38.4169   29.1395 C.ar    1  UNL1        0.0390
      7 C          19.4255   38.6628   30.4352 C.ar    1  UNL1        0.1738
      8 S          21.0387   38.9433   31.1351 S.2     1  UNL1       -0.0482
      9 C          22.0110   38.7211   29.7196 C.ar    1  UNL1        0.0885
     10 N          18.1107   38.6982   31.1150 N.pl3   1  UNL1        0.0639
     11 O          18.0403   39.0167   32.2885 O.2     1  UNL1       -0.1256
     12 O          17.0989   38.4139   30.4993 O.2     1  UNL1       -0.1256
     13 C          21.4700   38.1895   27.3444 C.2     1  UNL1        0.3430
     14 O          20.7799   37.4839   26.6334 O.2     1  UNL1       -0.2448
     15 O          22.6009   38.7384   26.8556 O.3     1  UNL1       -0.4454
     16 C          24.3287   39.0177   25.1624 C.3     1  UNL1        0.0513
     17 C          23.0302   38.3017   25.5391 C.3     1  UNL1        0.2089
     18 C          25.6561   37.8285   29.7576 C.3     1  UNL1        0.0863
     19 C          26.0529   37.6433   28.2916 C.3     1  UNL1        0.0212
     20 C          27.0818   38.7069   27.9034 C.3     1  UNL1        0.0584
     21 S          26.6950   40.2615   28.7543 S.3     1  UNL1       -0.1354
     22 C          25.9767   41.3055   27.4564 C.3     1  UNL1        0.0837
     23 C          24.9473   42.2240   28.0627 C.ar    1  UNL1       -0.0113
     24 C          25.3492   43.3470   28.7616 C.ar    1  UNL1       -0.0034
     25 C          24.4048   44.1922   29.3135 C.ar    1  UNL1       -0.0003
     26 C          23.0588   43.9091   29.1753 C.ar    1  UNL1       -0.0000
     27 C          22.6572   42.7831   28.4812 C.ar    1  UNL1       -0.0003
     28 C          23.6013   41.9407   27.9247 C.ar    1  UNL1       -0.0034
@<TRIPOS>BOND
     1    16    17    1
     2    17    15    1
     3    15    13    1
     4    13    14    2
     5    13     5    1
     6     5     9   ar
     7     5     6   ar
     8     6     7   ar
     9     7     8   ar
    10     7    10    1
    11     8     9   ar
    12     9     1    1
    13     1     2   am
    14     2     3    2
    15     2    18    1
    16    18    19    1
    17    19    20    1
    18    20    21    1
    19    21    22    1
    20    22    23    1
    21    23    28   ar
    22    23    24   ar
    23    24    25   ar
    24    25    26   ar
    25    26    27   ar
    26    27    28   ar
    27    10    11    2
    28    10    12    2
    29     1     4    1
@<TRIPOS>MOLECULE
ZINC05966653
 31 33 0 0 0
SMALL
GASTEIGER

@<TRIPOS>ATOM
      1 C          24.3161   38.7042   29.3368 C.2     1  UNL1        0.2632
      2 O          25.4364   38.8340   29.7831 O.2     1  UNL1       -0.2712
      3 N          23.9037   39.4801   28.3148 N.am    1  UNL1       -0.2957
      4 H          22.9944   39.3748   27.9525 H       1  UNL1        0.1501
      5 C          24.1863   36.6817   30.7656 C.3     1  UNL1        0.0575
      6 C          23.3831   37.6796   29.9290 C.3     1  UNL1        0.2444
      7 O          22.4073   38.3447   30.7739 O.3     1  UNL1       -0.4397
      8 C          21.1709   38.5113   30.2658 C.2     1  UNL1        0.3415
      9 O          20.9751   38.3475   29.0782 O.2     1  UNL1       -0.2449
     10 C          20.0530   38.8931   31.1529 C.ar    1  UNL1        0.0758
     11 C          18.7419   38.5516   30.8154 C.ar    1  UNL1        0.0081
     12 C          17.7034   38.9063   31.6512 C.ar    1  UNL1        0.0243
     13 C          17.9574   39.6087   32.8159 C.ar    1  UNL1        0.1429
     14 C          19.2537   39.9553   33.1535 C.ar    1  UNL1        0.0243
     15 C          20.3023   39.6021   32.3297 C.ar    1  UNL1        0.0081
     16 N          16.8374   39.9908   33.7050 N.pl3   1  UNL1        0.0577
     17 O          15.8425   39.2909   33.7664 O.2     1  UNL1       -0.1261
     18 O          16.9109   41.0050   34.3755 O.2     1  UNL1       -0.1261
     19 C          24.8087   40.4803   27.7431 C.3     1  UNL1        0.1170
     20 C          24.6525   40.5006   26.2443 C.ar    1  UNL1       -0.0003
     21 C          25.2374   41.5095   25.5021 C.ar    1  UNL1       -0.0024
     22 C          25.0982   41.5255   24.1269 C.ar    1  UNL1       -0.0003
     23 C          24.3657   40.5383   23.4948 C.ar    1  UNL1       -0.0000
     24 C          23.7759   39.5325   24.2376 C.ar    1  UNL1       -0.0003
     25 C          23.9196   39.5136   25.6123 C.ar    1  UNL1       -0.0024
     26 C          24.4731   41.8392   28.3016 C.ar    1  UNL1       -0.0003
     27 C          23.1707   42.3007   28.2608 C.ar    1  UNL1       -0.0024
     28 C          22.8621   43.5451   28.7774 C.ar    1  UNL1       -0.0003
     29 C          23.8574   44.3321   29.3260 C.ar    1  UNL1       -0.0000
     30 C          25.1607   43.8728   29.3617 C.ar    1  UNL1       -0.0003
     31 C          25.4685   42.6263   28.8497 C.ar    1  UNL1       -0.0024
@<TRIPOS>BOND
     1     5     6    1
     2     6     1    1
     3     6     7    1
     4     1     2    2
     5     1     3   am
     6     3    19    1
     7    19    20    1
     8    19    26    1
     9    20    25   ar
    10    20    21   ar
    11    21    22   ar
    12    22    23   ar
    13    23    24   ar
    14    24    25   ar
    15    26    31   ar
    16    26    27   ar
    17    27    28   ar
    18    28    29   ar
    19    29    30   ar
    20    30    31   ar
    21     7     8    1
    22     8     9    2
    23     8    10    1
    24    10    15   ar
    25    10    11   ar
    26    11    12   ar
    27    12    13   ar
    28    13    14   ar
    29    13    16    1
    30    14    15   ar
    31    16    17    2
    32    16    18    2
    33     3     4    1
@<TRIPOS>MOLECULE
ZINC17332530
 28 30 0 0 0
SMALL
GASTEIGER

@<TRIPOS>ATOM
      1 C          24.6225   39.9474   25.4711 C.3     1  UNL1        0.1258
      2 C          23.9910   43.1835   28.1868 C.ar    1  UNL1       -0.0222
      3 C          24.9978   43.2600   27.2428 C.ar    1  UNL1       -0.0045
      4 C          25.2046   42.2111   26.3663 C.ar    1  UNL1       -0.0029
      5 C          24.4011   41.0881   26.4305 C.ar    1  UNL1       -0.0019
      6 C          23.3980   41.0093   27.3784 C.ar    1  UNL1       -0.0029
      7 C          23.1909   42.0583   28.2545 C.ar    1  UNL1       -0.0045
      8 C          25.0888   44.7005   29.8126 C.3     1  UNL1        0.0050
      9 C          23.7652   44.3272   29.1420 C.3     1  UNL1        0.0264
     10 C          24.8203   40.4922   24.0799 C.ar    1  UNL1        0.0272
     11 C          23.8889   40.8761   23.1731 C.ar    1  UNL1        0.0044
     12 C          24.3059   41.3518   21.9441 C.ar    1  UNL1        0.0072
     13 C          25.6339   41.4202   21.6820 C.ar    1  UNL1        0.0352
     14 S          26.3425   40.8070   23.2016 S.2     1  UNL1       -0.0891
     15 N          23.4555   39.0620   25.4874 N.3     1  UNL1       -0.1719
     16 H          23.1400   38.9728   24.5215 H       1  UNL1        0.1495
     17 S          23.5901   37.5255   26.0901 S.O2    1  UNL1        0.0624
     18 O          22.4149   36.8304   25.6968 O.2     1  UNL1       -0.1529
     19 O          24.8933   37.0700   25.7534 O.2     1  UNL1       -0.1529
     20 C          23.5380   37.6486   27.8471 C.ar    1  UNL1        0.1443
     21 C          24.7144   37.6904   28.5723 C.ar    1  UNL1        0.0216
     22 C          24.6735   37.7919   29.9501 C.ar    1  UNL1        0.0015
     23 C          23.4563   37.8412   30.6038 C.ar    1  UNL1        0.0018
     24 C          22.2803   37.7942   29.8792 C.ar    1  UNL1        0.0255
     25 C          22.3211   37.6979   28.5006 C.ar    1  UNL1        0.1613
     26 N          21.0617   37.6470   27.7246 N.pl3   1  UNL1        0.0590
     27 O          20.6728   38.6360   27.1293 O.2     1  UNL1       -0.1261
     28 O          20.4143   36.6163   27.6812 O.2     1  UNL1       -0.1261
@<TRIPOS>BOND
     1     8     9    1
     2     9     2    1
     3     2     7   ar
     4     2     3   ar
     5     3     4   ar
     6     4     5   ar
     7     5     6   ar
     8     5     1    1
     9     6     7   ar
    10     1    10    1
    11     1    15    1
    12    10    14   ar
    13    10    11   ar
    14    11    12   ar
    15    12    13   ar
    16    13    14   ar
    17    15    17    1
    18    17    18    2
    19    17    19    2
    20    17    20    1
    21    20    25   ar
    22    20    21   ar
    23    21    22   ar
    24    22    23   ar
    25    23    24   ar
    26    24    25   ar
    27    25    26    1
    28    26    27    2
    29    26    28    2
    30    15    16    1
@<TRIPOS>MOLECULE
ZINC05853023
 29 30 0 0 0
SMALL
GASTEIGER

@<TRIPOS>ATOM
      1 C          26.4101   39.0494   27.5071 C.3     1  UNL1        0.2447
      2 C          27.8114   39.1802   26.9070 C.3     1  UNL1        0.0575
      3 N          25.6562   37.1201   28.8590 N.am    1  UNL1       -0.2812
      4 C          26.4708   38.1875   28.7417 C.2     1  UNL1        0.2664
      5 O          27.2524   38.4544   29.6298 O.2     1  UNL1       -0.2709
      6 H          25.0799   36.8555   28.1059 H       1  UNL1        0.1550
      7 C          26.3818   35.2268   30.1714 C.ar    1  UNL1       -0.0090
      8 C          26.3488   34.5030   31.3475 C.ar    1  UNL1       -0.0031
      9 C          25.5688   34.9339   32.4044 C.ar    1  UNL1       -0.0002
     10 C          24.8186   36.0900   32.2880 C.ar    1  UNL1        0.0013
     11 C          24.8469   36.8179   31.1147 C.ar    1  UNL1        0.0144
     12 C          25.6298   36.3879   30.0511 C.ar    1  UNL1        0.0463
     13 C          27.2326   34.7566   29.0199 C.3     1  UNL1        0.0236
     14 C          28.6982   35.0985   29.2957 C.3     1  UNL1        0.0047
     15 C          27.0709   32.8847   27.3729 C.3     1  UNL1        0.0003
     16 C          27.0835   33.2423   28.8605 C.3     1  UNL1        0.0044
     17 O          25.5220   38.4391   26.5339 O.3     1  UNL1       -0.4397
     18 C          24.4541   39.1615   26.1429 C.2     1  UNL1        0.3424
     19 O          24.4047   39.6110   25.0154 O.2     1  UNL1       -0.2449
     20 C          23.3438   39.4069   27.0847 C.ar    1  UNL1        0.0878
     21 C          22.4756   38.3692   27.4317 C.ar    1  UNL1        0.0314
     22 C          21.4411   38.6051   28.3122 C.ar    1  UNL1        0.1431
     23 C          21.2613   39.8667   28.8530 C.ar    1  UNL1        0.0249
     24 C          22.1159   40.8997   28.5145 C.ar    1  UNL1        0.0133
     25 C          23.1600   40.6771   27.6378 C.ar    1  UNL1        0.0640
     26 CL         24.2370   41.9727   27.2197 Cl      1  UNL1       -0.0820
     27 N          20.5203   37.5063   28.6805 N.pl3   1  UNL1        0.0577
     28 O          20.4959   36.4844   28.0182 O.2     1  UNL1       -0.1261
     29 O          19.7871   37.6239   29.6459 O.2     1  UNL1       -0.1261
@<TRIPOS>BOND
     1    15    16    1
     2    16    13    1
     3    13    14    1
     4    13     7    1
     5     7    12   ar
     6     7     8   ar
     7     8     9   ar
     8     9    10   ar
     9    10    11   ar
    10    11    12   ar
    11    12     3    1
    12     3     4   am
    13     4     5    2
    14     4     1    1
    15     1     2    1
    16     1    17    1
    17    17    18    1
    18    18    19    2
    19    18    20    1
    20    20    25   ar
    21    20    21   ar
    22    21    22   ar
    23    22    23   ar
    24    22    27    1
    25    23    24   ar
    26    24    25   ar
    27    25    26    1
    28    27    28    2
    29    27    29    2
    30     3     6    1
@<TRIPOS>MOLECULE
ZINC16970792
 34 36 0 0 0
SMALL
GASTEIGER

@<TRIPOS>ATOM
      1 C          26.1306   35.9386   30.8292 C.3     1  UNL1        0.0000
      2 C          27.2093   35.4276   29.8475 C.3     1  UNL1        0.0000
      3 C          26.9614   36.1576   28.5034 C.3     1  UNL1        0.0000
      4 C          25.4751   36.5448   28.5766 C.3     1  UNL1        0.0004
      5 C          25.3250   36.9851   30.0554 C.3     1  UNL1        0.0000
      6 C          23.8438   37.0036   30.3946 C.3     1  UNL1        0.0000
      7 C          23.0811   37.5048   29.1602 C.3     1  UNL1        0.0004
      8 C          23.9508   38.4792   28.3636 C.3     1  UNL1        0.0069
      9 C          25.1114   37.7291   27.6955 C.3     1  UNL1        0.0059
     10 C          25.9231   38.3798   30.2499 C.3     1  UNL1        0.0000
     11 C          23.0997   39.1536   27.2857 C.3     1  UNL1        0.0518
     12 C          21.8673   39.7965   27.9305 C.3     1  UNL1        0.0106
     13 C          22.3115   40.9286   28.8583 C.3     1  UNL1        0.0445
     14 C          22.9954   42.0282   28.0440 C.3     1  UNL1        0.1762
     15 C          24.2702   41.4692   27.4035 C.3     1  UNL1        0.1080
     16 C          23.9083   40.2337   26.6017 C.2     1  UNL1        0.1535
     17 O          24.2518   40.1145   25.4502 O.2     1  UNL1       -0.2960
     18 C          22.6566   38.1130   26.2552 C.3     1  UNL1        0.0073
     19 O          23.3378   43.1360   28.9180 O.3     1  UNL1       -0.4518
     20 C          23.9765   44.1768   28.3608 C.2     1  UNL1        0.3175
     21 O          23.6263   44.5932   27.2819 O.2     1  UNL1       -0.2501
     22 C          25.1301   44.8261   29.0808 C.3     1  UNL1        0.1212
     23 C          26.7904   36.5788   32.0522 C.3     1  UNL1        0.0000
     24 C          28.2847   36.2502   32.0560 C.3     1  UNL1        0.0000
     25 C          26.1444   36.0302   33.3260 C.3     1  UNL1        0.0000
     26 C          27.2290   35.7517   34.3687 C.3     1  UNL1        0.0000
     27 C          26.9216   34.4353   35.0852 C.3     1  UNL1        0.0000
     28 C          27.9757   32.7997   33.5182 C.3     1  UNL1        0.0000
     29 C          28.0883   33.4646   34.8914 C.3     1  UNL1        0.0000
     30 C          29.4095   34.2310   34.9802 C.3     1  UNL1        0.0000
     31 C          24.6792   37.2326   26.3143 C.3     1  UNL1        0.0417
     32 C          25.8960   36.8281   25.5226 C.2     1  UNL1        0.0503
     33 O          26.7228   37.6557   25.2207 O.co2   1  UNL1       -0.5492
     34 O          26.0611   35.5484   25.1525 O.co2   1  UNL1       -0.5492
@<TRIPOS>UNITY_ATOM_ATTR
34 1
charge -1
@<TRIPOS>BOND
     1    28    29    1
     2    29    30    1
     3    29    27    1
     4    27    26    1
     5    26    25    1
     6    25    23    1
     7    23    24    1
     8    23     1    1
     9     1     5    1
    10     1     2    1
    11     2     3    1
    12     3     4    1
    13     4     9    1
    14     4     5    1
    15     5     6    1
    16     5    10    1
    17     6     7    1
    18     7     8    1
    19     8     9    1
    20     8    11    1
    21     9    31    1
    22    31    32    1
    23    32    33   ar
    24    32    34   ar
    25    11    16    1
    26    11    12    1
    27    11    18    1
    28    12    13    1
    29    13    14    1
    30    14    15    1
    31    14    19    1
    32    15    16    1
    33    16    17    2
    34    19    20    1
    35    20    21    2
    36    20    22    1
@<TRIPOS>MOLECULE
ZINC19911509
 34 37 0 0 0
SMALL
GASTEIGER

@<TRIPOS>ATOM
      1 C          21.0627   50.9200   25.4720 C.3     1  UNL1        0.1724
      2 C          20.5656   51.7460   24.2824 C.3     1  UNL1        0.0441
      3 C          21.6285   52.7814   23.9383 C.3     1  UNL1        0.0074
      4 C          22.9597   52.1492   23.6006 C.3     1  UNL1        0.0155
      5 C          23.4051   51.0365   24.5274 C.3     1  UNL1        0.0070
      6 C          22.2990   50.1403   25.0469 C.3     1  UNL1        0.0440
      7 C          24.4634   50.1749   23.8222 C.3     1  UNL1        0.0007
      8 C          23.8150   49.3423   22.7138 C.3     1  UNL1        0.0040
      9 C          22.7477   50.1443   21.9971 C.3     1  UNL1        0.0188
     10 C          22.9541   51.6311   22.1762 C.2     1  UNL1       -0.0423
     11 C          23.0764   52.4747   21.1585 C.2     1  UNL1        0.0289
     12 C          23.0899   52.0072   19.7525 C.2     1  UNL1        0.1717
     13 O          22.9084   52.7912   18.8382 O.2     1  UNL1       -0.2914
     14 C          23.3891   50.5503   19.5735 C.3     1  UNL1        0.0558
     15 C          22.4967   49.7756   20.5756 C.3     1  UNL1        0.0106
     16 C          22.7650   48.3246   20.1491 C.3     1  UNL1        0.0007
     17 C          22.6466   48.4305   18.6011 C.3     1  UNL1        0.0004
     18 C          22.9916   49.9034   18.2448 C.3     1  UNL1        0.0069
     19 C          24.8864   50.3045   19.8140 C.3     1  UNL1        0.0077
     20 C          24.0175   53.2600   23.7019 C.3     1  UNL1        0.0040
     21 C          21.7601   50.5705   17.6327 C.3     1  UNL1        0.0010
     22 C          21.9518   50.7055   16.1208 C.3     1  UNL1        0.0000
     23 C          20.5233   49.7155   17.9157 C.3     1  UNL1        0.0117
     24 C          19.4503   50.5767   18.5851 C.3     1  UNL1        0.1096
     25 C          18.8593   51.5213   17.5704 C.2     1  UNL1        0.3171
     26 O          18.4343   51.0943   16.5231 O.2     1  UNL1       -0.2501
     27 O          18.8050   52.8371   17.8303 O.3     1  UNL1       -0.4444
     28 C          18.0877   53.6677   16.8796 C.3     1  UNL1        0.2556
     29 O          20.0234   49.9955   25.8891 O.3     1  UNL1       -0.4219
     30 C          19.0244   50.4971   26.6376 C.2     1  UNL1        0.5117
     31 O          17.8719   50.3679   26.2772 O.2     1  UNL1       -0.2028
     32 O          19.3020   51.1415   27.7854 O.3     1  UNL1       -0.4181
     33 C          19.7880   49.2695   29.2650 C.3     1  UNL1        0.0514
     34 C          18.9005   50.4915   29.0201 C.3     1  UNL1        0.2122
@<TRIPOS>BOND
     1    33    34    1
     2    34    32    1
     3    32    30    1
     4    30    31    2
     5    30    29    1
     6    29     1    1
     7     1     6    1
     8     1     2    1
     9     2     3    1
    10     3     4    1
    11     4    10    1
    12     4     5    1
    13     4    20    1
    14     5     6    1
    15     5     7    1
    16     7     8    1
    17     8     9    1
    18     9    15    1
    19     9    10    1
    20    10    11    2
    21    11    12    1
    22    12    13    2
    23    12    14    1
    24    14    18    1
    25    14    15    1
    26    14    19    1
    27    15    16    1
    28    16    17    1
    29    17    18    1
    30    18    21    1
    31    21    22    1
    32    21    23    1
    33    23    24    1
    34    24    25    1
    35    25    26    2
    36    25    27    1
    37    27    28    1
@<TRIPOS>MOLECULE
ZINC27644194
 34 35 0 0 0
SMALL
GASTEIGER

@<TRIPOS>ATOM
      1 C          25.0512   40.4930   28.2075 C.3     1  UNL1        0.1073
      2 C          23.5368   40.5801   28.3438 C.2     1  UNL1        0.1659
      3 O          22.9796   41.5077   28.8801 O.2     1  UNL1       -0.2949
      4 C          22.7843   39.3976   27.7459 C.3     1  UNL1        0.1196
      5 C          23.1401   39.3484   26.2521 C.3     1  UNL1        0.0155
      6 C          24.6551   39.2108   26.0985 C.3     1  UNL1        0.0062
      7 C          25.3644   40.4218   26.7052 C.3     1  UNL1        0.0154
      8 C          26.8748   40.2827   26.5042 C.3     1  UNL1        0.0011
      9 C          23.3402   38.1535   28.4044 C.2     1  UNL1        0.1746
     10 O          22.6448   37.1626   28.5048 O.2     1  UNL1       -0.2913
     11 C          24.6482   38.1379   28.9037 C.2     1  UNL1       -0.0014
     12 C          25.4797   39.1905   28.8436 C.2     1  UNL1       -0.1033
     13 O          26.7186   39.0840   29.3601 O.co2   1  UNL1       -0.8754
     14 C          25.7429   41.6665   28.8523 C.2     1  UNL1        0.1586
     15 O          26.4235   41.5004   29.8359 O.2     1  UNL1       -0.2954
     16 C          24.9128   43.9606   29.2963 C.3     1  UNL1        0.0078
     17 C          25.5854   43.0473   28.2694 C.3     1  UNL1        0.0583
     18 C          26.9623   43.6098   27.9111 C.3     1  UNL1        0.0078
     19 C          24.8725   41.6982   26.0198 C.3     1  UNL1        0.0057
     20 C          25.6102   41.8808   24.6918 C.3     1  UNL1        0.0254
     21 C          24.6786   41.5599   23.5515 C.2     1  UNL1       -0.0346
     22 C          25.0142   40.6540   22.6667 C.2     1  UNL1       -0.0478
     23 C          26.2837   39.8613   22.8440 C.3     1  UNL1        0.0260
     24 C          24.1308   40.4045   21.4715 C.3     1  UNL1        0.0260
     25 C          25.1234   37.9431   26.8156 C.3     1  UNL1        0.0254
     26 C          25.4085   36.8673   25.7996 C.2     1  UNL1       -0.0346
     27 C          26.5641   36.2504   25.8055 C.2     1  UNL1       -0.0478
     28 C          27.5889   36.5801   26.8601 C.3     1  UNL1        0.0260
     29 C          26.8689   35.2110   24.7577 C.3     1  UNL1        0.0260
     30 C          25.1507   36.8697   29.5443 C.3     1  UNL1        0.0530
     31 C          24.8825   36.9152   31.0265 C.2     1  UNL1       -0.0298
     32 C          25.1693   35.8798   31.7761 C.2     1  UNL1       -0.0475
     33 C          25.7673   34.6433   31.1561 C.3     1  UNL1        0.0260
     34 C          24.9011   35.9253   33.2583 C.3     1  UNL1        0.0260
@<TRIPOS>UNITY_ATOM_ATTR
13 1
charge -1
@<TRIPOS>BOND
     1    16    17    1
     2    17    18    1
     3    17    14    1
     4    14    15    2
     5    14     1    1
     6     1     7    1
     7     1    12    1
     8     1     2    1
     9     2     3    2
    10     2     4    1
    11     4     5    1
    12     4     9    1
    13     5     6    1
    14     6     7    1
    15     6    25    1
    16     7     8    1
    17     7    19    1
    18    19    20    1
    19    20    21    1
    20    21    22    2
    21    22    23    1
    22    22    24    1
    23    25    26    1
    24    26    27    2
    25    27    28    1
    26    27    29    1
    27     9    10    2
    28     9    11    1
    29    11    12    2
    30    11    30    1
    31    12    13    1
    32    30    31    1
    33    31    32    2
    34    32    33    1
    35    32    34    1
@<TRIPOS>MOLECULE
ZINC09556621
 33 35 0 0 0
SMALL
GASTEIGER

@<TRIPOS>ATOM
      1 C          12.7146   36.0892   27.1698 C.3     1  UNL1        0.2931
      2 C          10.5405   38.1811   24.9995 C.2     1  UNL1        0.2516
      3 O           9.4484   37.6851   25.1934 O.2     1  UNL1       -0.2697
      4 N          11.6263   37.6867   25.6266 N.am    1  UNL1       -0.2487
      5 C          11.5006   36.6420   26.4687 C.2     1  UNL1        0.2730
      6 O          10.4110   36.1470   26.6622 O.2     1  UNL1       -0.2706
      7 H          12.5111   38.0886   25.4695 H       1  UNL1        0.1579
      8 C          10.9393   41.4619   22.3323 C.ar    1  UNL1       -0.0228
      9 C          10.8719   40.1731   21.8335 C.ar    1  UNL1       -0.0041
     10 C          10.7424   39.1029   22.6942 C.ar    1  UNL1        0.0042
     11 C          10.6792   39.3226   24.0715 C.ar    1  UNL1        0.0537
     12 C          10.7420   40.6261   24.5678 C.ar    1  UNL1        0.0042
     13 C          10.8778   41.6867   23.6962 C.ar    1  UNL1       -0.0041
     14 C          11.2144   42.1054   19.9534 C.3     1  UNL1        0.0044
     15 C          11.0809   42.6260   21.3859 C.3     1  UNL1        0.0189
     16 C           9.8445   43.5212   21.4899 C.3     1  UNL1        0.0044
     17 C          12.3274   43.4335   21.7534 C.3     1  UNL1        0.0044
     18 O          13.6286   37.1732   27.4825 O.3     1  UNL1       -0.4353
     19 C          14.2346   37.1347   28.6850 C.2     1  UNL1        0.3414
     20 O          15.2063   36.4254   28.8529 O.2     1  UNL1       -0.2449
     21 C          13.7174   37.9550   29.7994 C.ar    1  UNL1        0.0725
     22 C          12.3645   37.9007   30.1412 C.ar    1  UNL1        0.0061
     23 C          11.8890   38.6664   31.1853 C.ar    1  UNL1        0.0002
     24 C          12.7475   39.4939   31.8876 C.ar    1  UNL1       -0.0003
     25 C          14.0880   39.5561   31.5511 C.ar    1  UNL1       -0.0032
     26 C          14.5778   38.7924   30.5118 C.ar    1  UNL1       -0.0047
     27 C          16.0381   38.8622   30.1461 C.3     1  UNL1        0.0905
     28 S          17.0268   39.0709   31.6477 S.3     1  UNL1       -0.0843
     29 C          18.6422   38.8298   30.9863 C.2     1  UNL1        0.1276
     30 N          18.9455   38.3197   29.8335 N.2     1  UNL1       -0.2572
     31 C          20.3151   38.1720   29.3973 C.3     1  UNL1        0.1387
     32 C          21.3335   38.6809   30.4415 C.3     1  UNL1        0.0904
     33 S          20.1916   39.2443   31.7619 S.3     1  UNL1       -0.0871
@<TRIPOS>BOND
     1    14    15    1
     2    15    16    1
     3    15    17    1
     4    15     8    1
     5     8    13   ar
     6     8     9   ar
     7     9    10   ar
     8    10    11   ar
     9    11    12   ar
    10    11     2    1
    11    12    13   ar
    12     2     3    2
    13     2     4   am
    14     4     5   am
    15     5     6    2
    16     5     1    1
    17     1    18    1
    18    18    19    1
    19    19    20    2
    20    19    21    1
    21    21    26   ar
    22    21    22   ar
    23    22    23   ar
    24    23    24   ar
    25    24    25   ar
    26    25    26   ar
    27    26    27    1
    28    27    28    1
    29    28    29    1
    30    29    33    1
    31    29    30    2
    32    30    31    1
    33    31    32    1
    34    32    33    1
    35     4     7    1
@<TRIPOS>MOLECULE
ZINC12369772
 32 33 0 0 0
SMALL
GASTEIGER

@<TRIPOS>ATOM
      1 C          21.9086   37.9007   28.5673 C.2     1  UNL1        0.2090
      2 N          22.8545   37.2716   29.2430 N.2     1  UNL1       -0.1717
      3 C          21.1908   37.2065   27.4879 C.2     1  UNL1        0.3636
      4 O          20.3425   36.3783   27.7566 O.2     1  UNL1       -0.2430
      5 O          21.4735   37.4885   26.2003 O.3     1  UNL1       -0.4443
      6 C          23.3064   38.7911   25.2655 C.3     1  UNL1        0.0513
      7 C          22.8687   37.4272   25.8030 C.3     1  UNL1        0.2089
      8 N          23.4171   37.8461   30.2517 N.pl3   1  UNL1       -0.2349
      9 H          23.0280   38.6673   30.6306 H       1  UNL1        0.1744
     10 C          24.5773   37.3037   30.8057 C.ar    1  UNL1        0.0756
     11 C          24.5139   36.5968   32.0008 C.ar    1  UNL1        0.0178
     12 C          25.6633   36.0610   32.5463 C.ar    1  UNL1        0.0128
     13 C          26.8787   36.2263   31.9044 C.ar    1  UNL1        0.0586
     14 C          26.9463   36.9293   30.7143 C.ar    1  UNL1        0.0241
     15 C          25.7989   37.4642   30.1603 C.ar    1  UNL1        0.0732
     16 CL         25.8829   38.3399   28.6637 Cl      1  UNL1       -0.0809
     17 CL         28.3214   35.5506   32.5942 Cl      1  UNL1       -0.0822
     18 C          21.5763   39.2864   28.8930 C.2     1  UNL1        0.2097
     19 O          22.3787   40.1705   28.6747 O.2     1  UNL1       -0.2885
     20 C          20.2371   39.6174   29.4998 C.3     1  UNL1        0.1344
     21 S          19.9980   38.6396   31.0041 S.3     1  UNL1       -0.0859
     22 C          18.2627   38.8452   31.2301 C.ar    1  UNL1        0.1159
     23 C          17.7687   39.3243   32.4568 C.ar    1  UNL1        0.0876
     24 C          16.3867   39.4786   32.6122 C.ar    1  UNL1       -0.0131
     25 C          15.5650   39.1569   31.5457 C.ar    1  UNL1       -0.0115
     26 C          16.1247   38.6862   30.3718 C.ar    1  UNL1        0.0557
     27 N          17.4300   38.5473   30.2442 N.ar    1  UNL1       -0.2431
     28 C          15.2268   38.3311   29.2148 C.3     1  UNL1        0.0518
     29 C          14.0707   39.3131   31.6648 C.3     1  UNL1        0.0320
     30 C          15.8075   39.9878   33.9068 C.3     1  UNL1        0.0315
     31 C          18.6635   39.6477   33.5270 C.1     1  UNL1        0.1021
     32 N          19.3734   39.9041   34.3760 N.1     1  UNL1       -0.1908
@<TRIPOS>BOND
     1     6     7    1
     2     7     5    1
     3     5     3    1
     4     3     4    2
     5     3     1    1
     6     1     2    2
     7     1    18    1
     8     2     8    1
     9     8    10    1
    10    10    15   ar
    11    10    11   ar
    12    11    12   ar
    13    12    13   ar
    14    13    14   ar
    15    13    17    1
    16    14    15   ar
    17    15    16    1
    18    18    19    2
    19    18    20    1
    20    20    21    1
    21    21    22    1
    22    22    27   ar
    23    22    23   ar
    24    23    24   ar
    25    23    31    1
    26    24    25   ar
    27    24    30    1
    28    25    26   ar
    29    25    29    1
    30    26    27   ar
    31    26    28    1
    32    31    32    3
    33     8     9    1
@<TRIPOS>MOLECULE
ZINC11451481
 32 34 0 0 0
SMALL
GASTEIGER

@<TRIPOS>ATOM
      1 C          22.6662   40.4052   28.1600 C.ar    1  UNL1        0.0875
      2 C          23.4641   39.3790   27.6488 C.ar    1  UNL1        0.0272
      3 C          24.7314   39.6612   27.1847 C.ar    1  UNL1        0.1225
      4 C          25.2124   40.9589   27.2193 C.ar    1  UNL1        0.0208
      5 C          24.4312   41.9797   27.7287 C.ar    1  UNL1        0.0130
      6 C          23.1594   41.7122   28.1972 C.ar    1  UNL1        0.0640
      7 CL         22.1772   42.9957   28.8308 Cl      1  UNL1       -0.0820
      8 S          25.7387   38.3679   26.5390 S.O2    1  UNL1        0.0636
      9 O          24.8541   37.3593   26.0707 O.2     1  UNL1       -0.1528
     10 O          26.7031   38.9858   25.6978 O.2     1  UNL1       -0.1528
     11 N          26.5712   37.7135   27.8121 N.3     1  UNL1       -0.1496
     12 C          27.5721   38.5139   28.5219 C.3     1  UNL1        0.1153
     13 C          26.3066   36.3341   28.2288 C.3     1  UNL1        0.1221
     14 C          25.8066   36.3260   29.6505 C.ar    1  UNL1       -0.0045
     15 C          26.4573   35.5703   30.6077 C.ar    1  UNL1       -0.0029
     16 C          26.0018   35.5669   31.9129 C.ar    1  UNL1       -0.0003
     17 C          24.8890   36.3107   32.2584 C.ar    1  UNL1       -0.0000
     18 C          24.2349   37.0620   31.2998 C.ar    1  UNL1       -0.0003
     19 C          24.6938   37.0698   29.9960 C.ar    1  UNL1       -0.0029
     20 C          21.3083   40.1103   28.6592 C.2     1  UNL1        0.3424
     21 O          20.4038   39.9056   27.8744 O.2     1  UNL1       -0.2449
     22 O          21.0722   40.0681   29.9848 O.3     1  UNL1       -0.4412
     23 C          20.9378   37.6844   29.5053 C.3     1  UNL1        0.0560
     24 C          20.9864   38.7545   30.5977 C.3     1  UNL1        0.2300
     25 C          19.7375   38.6725   31.4372 C.2     1  UNL1        0.2128
     26 O          18.8081   37.9829   31.0755 O.2     1  UNL1       -0.2875
     27 C          19.6461   39.4293   32.6960 C.ar    1  UNL1        0.0383
     28 C          20.7441   39.4915   33.5601 C.ar    1  UNL1        0.0030
     29 C          20.6518   40.2059   34.7358 C.ar    1  UNL1        0.0001
     30 C          19.4737   40.8527   35.0662 C.ar    1  UNL1        0.0000
     31 C          18.3812   40.7919   34.2186 C.ar    1  UNL1        0.0001
     32 C          18.4591   40.0853   33.0371 C.ar    1  UNL1        0.0030
@<TRIPOS>BOND
     1    23    24    1
     2    24    25    1
     3    24    22    1
     4    25    26    2
     5    25    27    1
     6    27    32   ar
     7    27    28   ar
     8    28    29   ar
     9    29    30   ar
    10    30    31   ar
    11    31    32   ar
    12    22    20    1
    13    20    21    2
    14    20     1    1
    15     1     6   ar
    16     1     2   ar
    17     2     3   ar
    18     3     4   ar
    19     3     8    1
    20     4     5   ar
    21     5     6   ar
    22     6     7    1
    23     8     9    2
    24     8    10    2
    25     8    11    1
    26    11    12    1
    27    11    13    1
    28    13    14    1
    29    14    19   ar
    30    14    15   ar
    31    15    16   ar
    32    16    17   ar
    33    17    18   ar
    34    18    19   ar
@<TRIPOS>MOLECULE
ZINC11307719
 32 34 0 0 0
SMALL
GASTEIGER

@<TRIPOS>ATOM
      1 C          26.2553   36.0377   31.9095 C.ar    1  UNL1        0.0089
      2 C          25.1332   36.7172   32.1882 C.ar    1  UNL1        0.0090
      3 C          24.3386   37.2535   31.0965 C.ar    1  UNL1        0.0802
      4 C          24.8472   36.9951   29.8095 C.ar    1  UNL1        0.1171
      5 S          26.3272   36.0694   30.1284 S.2     1  UNL1       -0.0721
      6 N          24.2341   37.4199   28.7116 N.ar    1  UNL1       -0.2158
      7 C          23.1127   38.1078   28.7860 C.ar    1  UNL1        0.1743
      8 N          22.5484   38.3988   29.9942 N.ar    1  UNL1       -0.2753
      9 C          23.1208   38.0024   31.1456 C.ar    1  UNL1        0.2642
     10 O          22.6056   38.2737   32.2167 O.2     1  UNL1       -0.2669
     11 C          26.4644   34.8932   34.0994 C.3     1  UNL1        0.0056
     12 C          27.2240   35.4000   32.8717 C.3     1  UNL1        0.0330
     13 C          21.2982   39.1613   30.0383 C.3     1  UNL1        0.1156
     14 C          20.1113   38.1959   30.0223 C.3     1  UNL1        0.0511
     15 C          19.0542   38.6839   30.9792 C.ar    1  UNL1       -0.0170
     16 C          17.7201   38.6272   30.6206 C.ar    1  UNL1       -0.0009
     17 C          16.7463   39.0683   31.4971 C.ar    1  UNL1        0.0397
     18 C          17.1071   39.5792   32.7335 C.ar    1  UNL1        0.1724
     19 C          18.4502   39.6415   33.0922 C.ar    1  UNL1        0.1721
     20 C          19.4210   39.1924   32.2113 C.ar    1  UNL1        0.0358
     21 O          18.8092   40.1416   34.3049 O.3     1  UNL1       -0.4684
     22 C          19.4242   41.4315   34.3184 C.3     1  UNL1        0.2526
     23 O          16.1508   40.0192   33.5946 O.3     1  UNL1       -0.4684
     24 C          15.6434   41.3380   33.3816 C.3     1  UNL1        0.2526
     25 S          22.3287   38.6550   27.3059 S.3     1  UNL1       -0.0693
     26 C          23.5695   39.8296   26.7088 C.3     1  UNL1        0.1292
     27 C          23.5822   41.0439   27.6013 C.2     1  UNL1        0.1611
     28 O          22.5441   41.4941   28.0230 O.2     1  UNL1       -0.2951
     29 C          24.8904   41.6962   27.9673 C.3     1  UNL1        0.0524
     30 C          25.6912   40.7596   28.8743 C.3     1  UNL1        0.0074
     31 C          25.6913   41.9822   26.6954 C.3     1  UNL1        0.0074
     32 C          24.6173   43.0091   28.7039 C.3     1  UNL1        0.0074
@<TRIPOS>BOND
     1    11    12    1
     2    12     1    1
     3     1     5   ar
     4     1     2   ar
     5     2     3   ar
     6     3     9   ar
     7     3     4   ar
     8     4     5   ar
     9     4     6   ar
    10     6     7   ar
    11     7     8   ar
    12     7    25    1
    13     8     9   ar
    14     8    13    1
    15     9    10    2
    16    13    14    1
    17    14    15    1
    18    15    20   ar
    19    15    16   ar
    20    16    17   ar
    21    17    18   ar
    22    18    19   ar
    23    18    23    1
    24    19    20   ar
    25    19    21    1
    26    21    22    1
    27    23    24    1
    28    25    26    1
    29    26    27    1
    30    27    28    2
    31    27    29    1
    32    29    30    1
    33    29    31    1
    34    29    32    1
@<TRIPOS>MOLECULE
ZINC27533211
 33 35 0 0 0
SMALL
GASTEIGER

@<TRIPOS>ATOM
      1 C          17.6878   38.7725   30.8864 C.ar    1  UNL1        0.1867
      2 N          18.5867   38.4119   30.0280 N.ar    1  UNL1       -0.1459
      3 N          19.8437   38.5308   30.6367 N.ar    1  UNL1       -0.1775
      4 C          19.6401   38.9785   31.8934 C.ar    1  UNL1        0.1850
      5 S          20.8479   39.2949   33.0648 S.2     1  UNL1       -0.0110
      6 N          18.3110   39.1363   32.0546 N.ar    1  UNL1       -0.2875
      7 C          16.2010   38.7956   30.6417 C.3     1  UNL1        0.2702
      8 O          15.8848   37.9322   29.5478 O.3     1  UNL1       -0.4673
      9 C          11.1938   38.2347   30.8614 C.3     1  UNL1        0.0311
     10 C          12.2580   37.9415   29.8354 C.ar    1  UNL1       -0.0188
     11 C          11.8980   37.5408   28.5618 C.ar    1  UNL1       -0.0041
     12 C          12.8718   37.2767   27.6166 C.ar    1  UNL1        0.0028
     13 C          14.2077   37.4072   27.9444 C.ar    1  UNL1        0.0369
     14 C          14.5715   37.8035   29.2230 C.ar    1  UNL1        0.1389
     15 C          13.5922   38.0681   30.1697 C.ar    1  UNL1        0.0327
     16 C          17.6450   39.6114   33.2699 C.3     1  UNL1        0.1357
     17 C          17.1595   41.0222   33.0579 C.2     1  UNL1       -0.0017
     18 C          16.0393   41.4191   33.6090 C.2     1  UNL1       -0.0029
     19 C          21.1383   38.2254   30.0227 C.3     1  UNL1        0.2437
     20 N          21.6222   39.4025   29.2891 N.4     1  UNL1        0.3031
     21 C          20.5238   40.0651   28.5733 C.3     1  UNL1        0.1698
     22 H          21.9968   40.0637   29.9696 H       1  UNL1        0.2096
     23 C          22.7075   39.0393   28.3681 C.3     1  UNL1        0.1361
     24 C          23.8230   40.0459   28.4844 C.ar    1  UNL1        0.0449
     25 C          23.6932   41.2923   27.9007 C.ar    1  UNL1        0.0263
     26 C          24.7141   42.2174   28.0117 C.ar    1  UNL1        0.1428
     27 C          25.8699   41.8932   28.6977 C.ar    1  UNL1        0.0249
     28 C          26.0032   40.6456   29.2768 C.ar    1  UNL1        0.0130
     29 C          24.9793   39.7208   29.1704 C.ar    1  UNL1        0.0593
     30 CL         25.1458   38.1535   29.8981 Cl      1  UNL1       -0.0824
     31 N          24.5724   43.5535   27.3909 N.pl3   1  UNL1        0.0577
     32 O          25.5331   44.0850   26.8637 O.2     1  UNL1       -0.1261
     33 O          23.4950   44.1215   27.4073 O.2     1  UNL1       -0.1261
@<TRIPOS>UNITY_ATOM_ATTR
20 1
charge 1
@<TRIPOS>BOND
     1     9    10    1
     2    10    15   ar
     3    10    11   ar
     4    11    12   ar
     5    12    13   ar
     6    13    14   ar
     7    14    15   ar
     8    14     8    1
     9     8     7    1
    10     7     1    1
    11     1     6   ar
    12     1     2   ar
    13     2     3   ar
    14     3     4   ar
    15     3    19    1
    16     4     5    2
    17     4     6   ar
    18     6    16    1
    19    16    17    1
    20    17    18    2
    21    19    20    1
    22    20    21    1
    23    20    23    1
    24    23    24    1
    25    24    29   ar
    26    24    25   ar
    27    25    26   ar
    28    26    27   ar
    29    26    31    1
    30    27    28   ar
    31    28    29   ar
    32    29    30    1
    33    31    32    2
    34    31    33    2
    35    20    22    1
@<TRIPOS>MOLECULE
ZINC08980289
 35 38 0 0 0
SMALL
GASTEIGER

@<TRIPOS>ATOM
      1 C          23.0736   38.2232   28.9212 C.ar    1  UNL1        0.1151
      2 C          24.2432   38.6063   28.2403 C.ar    1  UNL1        0.1470
      3 N          25.4314   38.3119   28.7326 N.ar    1  UNL1       -0.2279
      4 C          25.5219   37.6326   29.8830 C.ar    1  UNL1        0.1003
      5 C          26.7726   37.2981   30.4291 C.ar    1  UNL1        0.0207
      6 C          26.8349   36.6073   31.6005 C.ar    1  UNL1        0.0016
      7 C          25.6737   36.2251   32.2690 C.ar    1  UNL1        0.0016
      8 C          24.4452   36.5318   31.7696 C.ar    1  UNL1        0.0206
      9 C          24.3413   37.2441   30.5627 C.ar    1  UNL1        0.0987
     10 N          23.1453   37.5585   30.0489 N.ar    1  UNL1       -0.2437
     11 N          24.1468   39.3039   27.0456 N.pl3   1  UNL1       -0.2888
     12 C          24.0861   38.3835   25.9017 C.3     1  UNL1        0.1136
     13 C          23.9007   39.1876   24.6127 C.3     1  UNL1        0.1123
     14 N          25.0146   40.1346   24.4645 N.pl3   1  UNL1       -0.3041
     15 C          25.0753   41.0550   25.6085 C.3     1  UNL1        0.1123
     16 C          25.2608   40.2509   26.8975 C.3     1  UNL1        0.1136
     17 C          24.9175   40.8380   23.2601 C.ar    1  UNL1        0.0481
     18 C          23.8694   40.5794   22.3863 C.ar    1  UNL1        0.0168
     19 C          23.7727   41.2788   21.1993 C.ar    1  UNL1        0.0309
     20 C          24.7256   42.2298   20.8753 C.ar    1  UNL1        0.1402
     21 C          25.7743   42.4856   21.7425 C.ar    1  UNL1        0.0309
     22 C          25.8720   41.7923   22.9330 C.ar    1  UNL1        0.0168
     23 F          24.6317   42.9095   19.7115 F       1  UNL1       -0.2042
     24 C          21.7258   38.5747   28.3461 C.3     1  UNL1        0.2319
     25 C          20.9935   39.4821   29.3006 C.2     1  UNL1        0.3369
     26 O          21.2857   40.6527   29.3658 O.2     1  UNL1       -0.2485
     27 O          20.0128   38.9912   30.0745 O.3     1  UNL1       -0.4475
     28 C          20.1882   39.1033   31.5115 C.3     1  UNL1        0.2085
     29 C          18.8924   38.6978   32.2167 C.3     1  UNL1        0.0474
     30 C          18.7711   39.4592   33.5382 C.3     1  UNL1        0.0038
     31 C          19.8258   38.9465   34.5208 C.3     1  UNL1        0.0001
     32 C          19.5646   41.3287   35.2275 C.3     1  UNL1        0.0000
     33 C          20.5204   40.1347   35.1892 C.3     1  UNL1        0.0000
     34 C          20.9439   37.3445   28.1410 C.1     1  UNL1        0.0898
     35 N          20.3406   36.3951   27.9827 N.1     1  UNL1       -0.1949
@<TRIPOS>BOND
     1    32    33    1
     2    33    31    1
     3    31    30    1
     4    30    29    1
     5    29    28    1
     6    28    27    1
     7    27    25    1
     8    25    26    2
     9    25    24    1
    10    24    34    1
    11    24     1    1
    12    34    35    3
    13     1    10   ar
    14     1     2   ar
    15     2     3   ar
    16     2    11    1
    17     3     4   ar
    18     4     9   ar
    19     4     5   ar
    20     5     6   ar
    21     6     7   ar
    22     7     8   ar
    23     8     9   ar
    24     9    10   ar
    25    11    16    1
    26    11    12    1
    27    12    13    1
    28    13    14    1
    29    14    15    1
    30    14    17    1
    31    15    16    1
    32    17    22   ar
    33    17    18   ar
    34    18    19   ar
    35    19    20   ar
    36    20    21   ar
    37    20    23    1
    38    21    22   ar
@<TRIPOS>MOLECULE
ZINC14730594
 34 37 0 0 0
SMALL
GASTEIGER

@<TRIPOS>ATOM
      1 N          18.4536   39.0830   31.7184 N.am    1  UNL1       -0.2356
      2 C          18.7793   38.6406   30.4877 C.2     1  UNL1        0.2754
      3 O          17.9243   38.5403   29.6334 O.2     1  UNL1       -0.2704
      4 C          17.1383   39.4242   32.0086 C.ar    1  UNL1        0.1689
      5 N          16.0220   39.0000   31.4463 N.ar    1  UNL1       -0.2237
      6 C          14.8387   39.4347   31.8531 C.ar    1  UNL1        0.0897
      7 C          14.7718   40.3403   32.8750 C.ar    1  UNL1        0.0572
      8 S          16.5084   40.5482   33.2474 S.2     1  UNL1       -0.0506
      9 C          13.5979   38.9439   31.2055 C.ar    1  UNL1        0.0182
     10 C          13.6724   38.1489   30.0630 C.ar    1  UNL1        0.0015
     11 C          12.5147   37.6902   29.4681 C.ar    1  UNL1        0.0000
     12 C          11.2817   38.0276   29.9968 C.ar    1  UNL1        0.0000
     13 C          11.2016   38.8209   31.1271 C.ar    1  UNL1        0.0000
     14 C          12.3529   39.2806   31.7339 C.ar    1  UNL1        0.0015
     15 C          19.4864   39.2041   32.7503 C.3     1  UNL1        0.1002
     16 C          19.0857   38.3756   33.9726 C.3     1  UNL1        0.0220
     17 C          19.9595   38.7703   35.1649 C.3     1  UNL1        0.0018
     18 C          20.5562   40.1581   34.9227 C.3     1  UNL1        0.0001
     19 C          19.3002   42.2860   34.5520 C.3     1  UNL1        0.0000
     20 C          19.6697   41.2166   35.5820 C.3     1  UNL1        0.0000
     21 C          20.2059   38.2705   30.1730 C.3     1  UNL1        0.2930
     22 O          20.4728   38.5232   28.7683 O.3     1  UNL1       -0.4384
     23 C          21.1310   37.5687   28.0919 C.2     1  UNL1        0.3169
     24 O          20.5927   36.5120   27.8605 O.2     1  UNL1       -0.2501
     25 C          22.5539   37.8172   27.6169 C.3     1  UNL1        0.0999
     26 C          22.5656   37.7158   26.1003 C.3     1  UNL1        0.0184
     27 C          23.8663   38.2133   25.4761 C.3     1  UNL1        0.0581
     28 C          25.0395   37.3168   25.8599 C.3     1  UNL1        0.0073
     29 C          25.3957   37.3810   27.3327 C.3     1  UNL1        0.0009
     30 C          25.4704   38.7794   27.9147 C.3     1  UNL1        0.0073
     31 C          24.2943   39.6677   27.5205 C.3     1  UNL1        0.0581
     32 C          22.9947   39.1717   28.1477 C.3     1  UNL1        0.0184
     33 C          24.1425   39.6069   26.0112 C.2     1  UNL1        0.1498
     34 O          24.2333   40.5771   25.3020 O.2     1  UNL1       -0.2961
@<TRIPOS>BOND
     1    19    20    1
     2    20    18    1
     3    18    17    1
     4    17    16    1
     5    16    15    1
     6    15     1    1
     7     1     4    1
     8     1     2   am
     9     4     8   ar
    10     4     5   ar
    11     5     6   ar
    12     6     7   ar
    13     6     9    1
    14     7     8   ar
    15     9    14   ar
    16     9    10   ar
    17    10    11   ar
    18    11    12   ar
    19    12    13   ar
    20    13    14   ar
    21     2     3    2
    22     2    21    1
    23    21    22    1
    24    22    23    1
    25    23    24    2
    26    23    25    1
    27    25    32    1
    28    25    26    1
    29    26    27    1
    30    27    33    1
    31    27    28    1
    32    28    29    1
    33    29    30    1
    34    30    31    1
    35    31    32    1
    36    31    33    1
    37    33    34    2
@<TRIPOS>MOLECULE
ZINC16940579
 34 37 0 0 0
SMALL
GASTEIGER

@<TRIPOS>ATOM
      1 C          20.8651   38.8040   28.6034 C.3     1  UNL1        0.1888
      2 C          20.7656   37.3013   28.2426 C.3     1  UNL1        0.0906
      3 S          21.8288   37.2648   26.7309 S.3     1  UNL1       -0.1162
      4 C          22.9379   38.6571   27.2243 C.3     1  UNL1        0.1558
      5 N          22.0185   39.4828   28.0372 N.am    1  UNL1       -0.2263
      6 C          22.2391   40.7964   28.2424 C.2     1  UNL1        0.4062
      7 O          21.4631   41.4448   28.9160 O.2     1  UNL1       -0.2261
      8 C          20.9233   38.9327   30.1037 C.2     1  UNL1        0.3367
      9 O          21.8361   38.4333   30.7179 O.2     1  UNL1       -0.2482
     10 O          19.9611   39.6023   30.7577 O.3     1  UNL1       -0.4419
     11 C          19.2352   38.8770   31.7851 C.3     1  UNL1        0.2135
     12 C          20.0583   40.6100   35.6017 C.ar    1  UNL1       -0.0000
     13 C          20.0635   39.2359   35.4510 C.ar    1  UNL1       -0.0002
     14 C          19.7969   38.6751   34.2159 C.ar    1  UNL1       -0.0005
     15 C          19.5255   39.4884   33.1316 C.ar    1  UNL1        0.0216
     16 C          19.5259   40.8627   33.2811 C.ar    1  UNL1       -0.0005
     17 C          19.7869   41.4233   34.5174 C.ar    1  UNL1       -0.0002
     18 C          17.7564   38.9559   31.5059 C.ar    1  UNL1        0.0216
     19 C          16.8811   39.3158   32.5134 C.ar    1  UNL1       -0.0005
     20 C          15.5251   39.3933   32.2558 C.ar    1  UNL1       -0.0002
     21 C          15.0434   39.1002   30.9937 C.ar    1  UNL1       -0.0000
     22 C          15.9182   38.7348   29.9877 C.ar    1  UNL1       -0.0002
     23 C          17.2747   38.6628   30.2437 C.ar    1  UNL1       -0.0005
     24 O          23.3194   41.3902   27.7009 O.3     1  UNL1       -0.4295
     25 C          24.3924   41.7588   28.6070 C.3     1  UNL1        0.2384
     26 C          24.7630   43.2027   28.3858 C.ar    1  UNL1        0.0438
     27 C          23.7903   44.1834   28.4480 C.ar    1  UNL1        0.0010
     28 C          24.1302   45.5076   28.2454 C.ar    1  UNL1       -0.0001
     29 C          25.4429   45.8517   27.9807 C.ar    1  UNL1        0.0017
     30 C          26.4152   44.8715   27.9186 C.ar    1  UNL1        0.0239
     31 C          26.0761   43.5473   28.1263 C.ar    1  UNL1        0.1424
     32 N          27.1184   42.4981   28.0659 N.pl3   1  UNL1        0.0575
     33 O          27.4042   41.9845   26.9991 O.2     1  UNL1       -0.1261
     34 O          27.6901   42.1482   29.0829 O.2     1  UNL1       -0.1261
@<TRIPOS>BOND
     1    12    17   ar
     2    12    13   ar
     3    13    14   ar
     4    14    15   ar
     5    15    16   ar
     6    15    11    1
     7    16    17   ar
     8    11    18    1
     9    11    10    1
    10    18    23   ar
    11    18    19   ar
    12    19    20   ar
    13    20    21   ar
    14    21    22   ar
    15    22    23   ar
    16    10     8    1
    17     8     9    2
    18     8     1    1
    19     1     5    1
    20     1     2    1
    21     2     3    1
    22     3     4    1
    23     4     5    1
    24     5     6   am
    25     6     7    2
    26     6    24    1
    27    24    25    1
    28    25    26    1
    29    26    31   ar
    30    26    27   ar
    31    27    28   ar
    32    28    29   ar
    33    29    30   ar
    34    30    31   ar
    35    31    32    1
    36    32    33    2
    37    32    34    2
@<TRIPOS>MOLECULE
ZINC09045202
 33 35 0 0 0
SMALL
GASTEIGER

@<TRIPOS>ATOM
      1 C          28.8902   52.5242   24.9035 C.3     1  UNL1        0.0320
      2 C          27.4327   52.4845   25.2843 C.ar    1  UNL1       -0.0082
      3 C          26.4819   52.2308   24.3188 C.ar    1  UNL1        0.0342
      4 C          25.1360   52.1932   24.6627 C.ar    1  UNL1        0.1483
      5 C          24.7606   52.4140   25.9977 C.ar    1  UNL1        0.0774
      6 C          25.7311   52.6691   26.9658 C.ar    1  UNL1        0.0174
      7 C          27.0612   52.7031   26.6038 C.ar    1  UNL1        0.0540
      8 CL         28.2758   53.0201   27.8028 Cl      1  UNL1       -0.0826
      9 C          23.3275   52.3690   26.3456 C.ar    1  UNL1        0.2352
     10 O          22.9468   52.5534   27.4903 O.2     1  UNL1       -0.2831
     11 C          22.4103   52.1026   25.2987 C.ar    1  UNL1        0.2121
     12 C          22.8833   51.9007   24.0245 C.ar    1  UNL1        0.1822
     13 O          24.1933   51.9457   23.7297 O.2     1  UNL1       -0.4502
     14 C          21.9199   51.6244   22.9433 C.ar    1  UNL1        0.0409
     15 C          21.1816   52.6687   22.3790 C.ar    1  UNL1        0.0065
     16 C          20.2814   52.4082   21.3683 C.ar    1  UNL1        0.0401
     17 C          20.1060   51.1106   20.9080 C.ar    1  UNL1        0.1724
     18 C          20.8388   50.0644   21.4659 C.ar    1  UNL1        0.1725
     19 C          21.7468   50.3184   22.4758 C.ar    1  UNL1        0.0432
     20 O          20.6640   48.7943   21.0124 O.3     1  UNL1       -0.4684
     21 C          21.7302   48.2252   20.2499 C.3     1  UNL1        0.2526
     22 O          19.2179   50.8595   19.9108 O.3     1  UNL1       -0.4684
     23 C          19.6604   51.0972   18.5729 C.3     1  UNL1        0.2526
     24 O          21.0749   52.0421   25.5537 O.3     1  UNL1       -0.4616
     25 C          20.4857   50.7420   25.6220 C.3     1  UNL1        0.2637
     26 C          18.9730   50.8768   25.8071 C.3     1  UNL1        0.0596
     27 C          21.0692   49.9868   26.7882 C.2     1  UNL1        0.3576
     28 O          20.6056   50.1314   27.8945 O.2     1  UNL1       -0.2461
     29 O          22.1040   49.1531   26.5978 O.3     1  UNL1       -0.4461
     30 C          23.0773   49.0548   27.6708 C.3     1  UNL1        0.2084
     31 C          24.4055   48.5435   27.1094 C.3     1  UNL1        0.0439
     32 C          24.5889   47.0735   27.4923 C.3     1  UNL1        0.0038
     33 C          24.4000   48.6766   25.5852 C.3     1  UNL1        0.0038
@<TRIPOS>BOND
     1     1     2    1
     2     2     7   ar
     3     2     3   ar
     4     3     4   ar
     5     4    13   ar
     6     4     5   ar
     7     5     6   ar
     8     5     9   ar
     9     6     7   ar
    10     7     8    1
    11     9    10    2
    12     9    11   ar
    13    11    12   ar
    14    11    24    1
    15    12    13   ar
    16    12    14    1
    17    14    19   ar
    18    14    15   ar
    19    15    16   ar
    20    16    17   ar
    21    17    18   ar
    22    17    22    1
    23    18    19   ar
    24    18    20    1
    25    20    21    1
    26    22    23    1
    27    24    25    1
    28    25    26    1
    29    25    27    1
    30    27    28    2
    31    27    29    1
    32    29    30    1
    33    30    31    1
    34    31    32    1
    35    31    33    1
@<TRIPOS>MOLECULE
ZINC03799035
 34 37 0 0 0
SMALL
GASTEIGER

@<TRIPOS>ATOM
      1 C          21.0322   38.9250   31.4563 C.2     1  UNL1        0.2257
      2 O          21.6305   38.4827   32.4139 O.2     1  UNL1       -0.2749
      3 N          21.5514   38.7967   30.2192 N.am    1  UNL1       -0.2760
      4 C          22.8422   38.1239   30.0084 C.3     1  UNL1        0.1149
      5 C          23.7382   39.0349   29.1624 C.3     1  UNL1        0.1137
      6 N          23.0240   39.4159   27.9360 N.pl3   1  UNL1       -0.2896
      7 C          21.8146   40.1930   28.2382 C.3     1  UNL1        0.1137
      8 C          20.8421   39.3252   29.0442 C.3     1  UNL1        0.1149
      9 C          23.8571   40.1095   27.0720 C.ar    1  UNL1        0.1375
     10 C          24.7855   41.0205   27.5673 C.ar    1  UNL1        0.0687
     11 C          25.6039   41.6902   26.6627 C.ar    1  UNL1        0.1374
     12 N          25.4663   41.4465   25.3612 N.ar    1  UNL1       -0.1986
     13 C          24.5683   40.5762   24.9253 C.ar    1  UNL1        0.2224
     14 N          23.7761   39.9170   25.7575 N.ar    1  UNL1       -0.1986
     15 N          24.4548   40.3492   23.5650 N.pl3   1  UNL1       -0.2781
     16 C          23.1910   39.6360   23.2480 C.3     1  UNL1        0.0937
     17 C          22.9825   39.9365   21.7424 C.3     1  UNL1        0.0233
     18 C          23.4664   41.3990   21.6115 C.3     1  UNL1        0.0233
     19 C          24.3965   41.6243   22.8180 C.3     1  UNL1        0.0937
     20 N          26.5460   42.6031   27.1105 N.pl3   1  UNL1       -0.2931
     21 C          26.7448   43.6920   26.1201 C.3     1  UNL1        0.0922
     22 C          27.3710   44.8298   26.9649 C.3     1  UNL1        0.0232
     23 C          26.6235   44.7110   28.3130 C.3     1  UNL1        0.0232
     24 C          26.0935   43.2657   28.3529 C.3     1  UNL1        0.0922
     25 C          19.7079   39.6181   31.6494 C.3     1  UNL1        0.0853
     26 C          19.1938   39.3499   33.0653 C.3     1  UNL1        0.0096
     27 C          18.5888   40.6324   33.6396 C.3     1  UNL1        0.0005
     28 C          17.0949   40.4222   33.8944 C.3     1  UNL1        0.0000
     29 C          16.2911   41.4432   33.0870 C.3     1  UNL1        0.0000
     30 C          15.3135   40.7100   32.1663 C.3     1  UNL1        0.0003
     31 C          15.6100   39.2094   32.1989 C.3     1  UNL1        0.0047
     32 C          16.1810   38.7728   30.8483 C.3     1  UNL1        0.0260
     33 C          14.7922   38.0074   28.9919 C.2     1  UNL1       -0.0049
     34 C          15.1512   38.9972   29.7713 C.2     1  UNL1       -0.0261
@<TRIPOS>BOND
     1    33    34    2
     2    34    32    1
     3    32    31    1
     4    31    30    1
     5    30    29    1
     6    29    28    1
     7    28    27    1
     8    27    26    1
     9    26    25    1
    10    25     1    1
    11     1     2    2
    12     1     3   am
    13     3     8    1
    14     3     4    1
    15     4     5    1
    16     5     6    1
    17     6     7    1
    18     6     9    1
    19     7     8    1
    20     9    14   ar
    21     9    10   ar
    22    10    11   ar
    23    11    12   ar
    24    11    20    1
    25    12    13   ar
    26    13    14   ar
    27    13    15    1
    28    15    19    1
    29    15    16    1
    30    16    17    1
    31    17    18    1
    32    18    19    1
    33    20    24    1
    34    20    21    1
    35    21    22    1
    36    22    23    1
    37    23    24    1
@<TRIPOS>MOLECULE
ZINC08847460
 34 37 0 0 0
SMALL
GASTEIGER

@<TRIPOS>ATOM
      1 C          12.6004   39.0058   31.9254 C.3     1  UNL1        0.0320
      2 C          13.7293   38.7573   30.9586 C.ar    1  UNL1       -0.0030
      3 C          13.4698   38.1847   29.7119 C.ar    1  UNL1        0.0768
      4 C          14.5943   37.9914   28.8768 C.ar    1  UNL1        0.1169
      5 N          14.4842   37.4575   27.6672 N.ar    1  UNL1       -0.2186
      6 C          13.3296   37.0831   27.1869 C.ar    1  UNL1        0.1815
      7 N          12.1804   37.2233   27.8921 N.ar    1  UNL1       -0.2739
      8 C          12.1786   37.7477   29.1332 C.ar    1  UNL1        0.2639
      9 O          11.1411   37.8651   29.7606 O.2     1  UNL1       -0.2669
     10 S          15.9402   38.6081   29.8561 S.2     1  UNL1       -0.0617
     11 C          15.0082   39.0910   31.2997 C.ar    1  UNL1        0.1027
     12 C          15.4948   39.6948   32.5421 C.2     1  UNL1        0.3474
     13 O          15.2605   39.1616   33.6098 O.2     1  UNL1       -0.2443
     14 O          16.2028   40.8424   32.5021 O.3     1  UNL1       -0.4401
     15 C          16.6872   41.3624   33.7683 C.3     1  UNL1        0.2354
     16 C          18.1070   40.9074   33.9881 C.ar    1  UNL1        0.0213
     17 C          18.8309   41.3948   35.0601 C.ar    1  UNL1       -0.0007
     18 C          20.1315   40.9734   35.2647 C.ar    1  UNL1       -0.0002
     19 C          20.7117   40.0728   34.3911 C.ar    1  UNL1       -0.0000
     20 C          19.9897   39.5897   33.3159 C.ar    1  UNL1       -0.0002
     21 C          18.6872   40.0068   33.1145 C.ar    1  UNL1       -0.0007
     22 C          10.9149   36.7892   27.2951 C.3     1  UNL1        0.1373
     23 C          10.7652   37.4087   25.9295 C.ar    1  UNL1        0.0007
     24 C          10.7675   36.6050   24.8028 C.ar    1  UNL1       -0.0024
     25 C          10.6250   37.1649   23.5457 C.ar    1  UNL1       -0.0001
     26 C          10.4910   38.5310   23.4067 C.ar    1  UNL1        0.0064
     27 C          10.4936   39.3482   24.5387 C.ar    1  UNL1        0.0754
     28 C          10.6321   38.7758   25.8050 C.ar    1  UNL1        0.0040
     29 C          10.3510   40.8117   24.3975 C.2     1  UNL1        0.3411
     30 O          10.2775   41.5130   25.3866 O.2     1  UNL1       -0.2449
     31 O          10.3023   41.3687   23.1719 O.3     1  UNL1       -0.4492
     32 C          11.3464   42.3211   22.8387 C.3     1  UNL1        0.1694
     33 C          12.6674   41.5778   22.6307 C.3     1  UNL1        0.0473
     34 C          10.9701   43.0616   21.5538 C.3     1  UNL1        0.0473
@<TRIPOS>BOND
     1     1     2    1
     2     2    11   ar
     3     2     3   ar
     4     3     8   ar
     5     3     4   ar
     6     4     5   ar
     7     4    10   ar
     8     5     6   ar
     9     6     7   ar
    10     7     8   ar
    11     7    22    1
    12     8     9    2
    13    22    23    1
    14    23    28   ar
    15    23    24   ar
    16    24    25   ar
    17    25    26   ar
    18    26    27   ar
    19    27    28   ar
    20    27    29    1
    21    29    30    2
    22    29    31    1
    23    31    32    1
    24    32    33    1
    25    32    34    1
    26    10    11   ar
    27    11    12    1
    28    12    13    2
    29    12    14    1
    30    14    15    1
    31    15    16    1
    32    16    21   ar
    33    16    17   ar
    34    17    18   ar
    35    18    19   ar
    36    19    20   ar
    37    20    21   ar
@<TRIPOS>MOLECULE
ZINC12003766
 32 35 0 0 0
SMALL
GASTEIGER

@<TRIPOS>ATOM
      1 S          27.0498   37.4192   29.3111 S.3     1  UNL1       -0.0674
      2 C          27.0637   35.6725   29.0795 C.ar    1  UNL1        0.1746
      3 N          27.1584   35.1790   27.8614 N.ar    1  UNL1       -0.2157
      4 C          27.1758   33.8676   27.6570 C.ar    1  UNL1        0.1171
      5 C          27.0849   32.9451   28.7164 C.ar    1  UNL1        0.0766
      6 C          27.1143   31.5486   28.3169 C.ar    1  UNL1       -0.0094
      7 C          27.2218   31.2415   27.0159 C.ar    1  UNL1        0.0328
      8 S          27.2927   32.8346   26.2189 S.2     1  UNL1       -0.0676
      9 C          26.9779   33.5102   30.0263 C.ar    1  UNL1        0.2642
     10 O          26.8947   32.7884   31.0052 O.2     1  UNL1       -0.2669
     11 N          26.9706   34.8488   30.1638 N.ar    1  UNL1       -0.2714
     12 C          27.0244   30.4575   29.3526 C.3     1  UNL1        0.0231
     13 C          27.5098   29.0627   28.9532 C.3     1  UNL1        0.0047
     14 C          26.0126   29.3355   29.1108 C.3     1  UNL1        0.0047
     15 C          26.8611   35.4330   31.5028 C.3     1  UNL1        0.1374
     16 C          25.4190   35.4207   31.9398 C.2     1  UNL1       -0.0016
     17 C          25.1211   35.3455   33.2133 C.2     1  UNL1       -0.0029
     18 C          26.4557   37.9471   27.6849 C.3     1  UNL1        0.1501
     19 N          24.4196   38.8283   28.7788 N.am    1  UNL1       -0.2781
     20 C          24.9654   38.1641   27.7408 C.2     1  UNL1        0.2379
     21 O          24.2567   37.7366   26.8543 O.2     1  UNL1       -0.2738
     22 H          24.9949   39.1751   29.4984 H       1  UNL1        0.1553
     23 C          22.3259   40.1716   28.5278 C.ar    1  UNL1        0.0958
     24 C          20.8913   40.0929   28.6715 C.ar    1  UNL1        0.0152
     25 C          20.3797   38.9237   29.0955 C.ar    1  UNL1        0.0369
     26 S          21.8199   37.8975   29.3047 S.2     1  UNL1       -0.0715
     27 C          23.0484   39.0229   28.8330 C.ar    1  UNL1        0.0870
     28 C          22.9871   41.3989   28.0794 C.2     1  UNL1        0.3429
     29 O          23.8959   41.3403   27.2730 O.2     1  UNL1       -0.2448
     30 O          22.5886   42.5942   28.5608 O.3     1  UNL1       -0.4454
     31 C          24.3058   44.1742   29.2575 C.3     1  UNL1        0.0513
     32 C          23.3457   43.7597   28.1405 C.3     1  UNL1        0.2089
@<TRIPOS>BOND
     1    31    32    1
     2    32    30    1
     3    30    28    1
     4    28    29    2
     5    28    23    1
     6    23    27   ar
     7    23    24   ar
     8    24    25   ar
     9    25    26   ar
    10    26    27   ar
    11    27    19    1
    12    19    20   am
    13    20    21    2
    14    20    18    1
    15    18     1    1
    16     1     2    1
    17     2    11   ar
    18     2     3   ar
    19     3     4   ar
    20     4     8   ar
    21     4     5   ar
    22     5     6   ar
    23     5     9   ar
    24     6     7   ar
    25     6    12    1
    26     7     8   ar
    27    12    14    1
    28    12    13    1
    29    13    14    1
    30     9    10    2
    31     9    11   ar
    32    11    15    1
    33    15    16    1
    34    16    17    2
    35    19    22    1
@<TRIPOS>MOLECULE
ZINC08822656
 32 34 0 0 0
SMALL
GASTEIGER

@<TRIPOS>ATOM
      1 C          23.4160   37.9697   25.6521 C.2     1  UNL1        0.0828
      2 O          23.4987   38.9450   24.9303 O.2     1  UNL1       -0.3129
      3 C          26.0735   37.1276   28.1704 C.ar    1  UNL1        0.1753
      4 C          24.9340   37.6640   27.6008 C.ar    1  UNL1        0.0415
      5 C          24.6318   37.3984   26.2627 C.ar    1  UNL1        0.0218
      6 C          25.4800   36.5863   25.5055 C.ar    1  UNL1        0.0415
      7 C          26.6213   36.0572   26.0783 C.ar    1  UNL1        0.1753
      8 C          26.9198   36.3230   27.4120 C.ar    1  UNL1        0.2059
      9 O          26.3682   37.3858   29.4727 O.3     1  UNL1       -0.4723
     10 C          24.9007   36.1640   30.9539 C.3     1  UNL1        0.0512
     11 C          25.2663   37.5305   30.3709 C.3     1  UNL1        0.2057
     12 O          28.0393   35.7965   27.9744 O.3     1  UNL1       -0.4695
     13 C          28.1151   34.3720   28.0577 C.3     1  UNL1        0.2058
     14 C          27.0447   33.8598   29.0232 C.3     1  UNL1        0.0512
     15 O          27.4501   35.2712   25.3401 O.3     1  UNL1       -0.4723
     16 C          26.8440   34.4431   24.3459 C.3     1  UNL1        0.2057
     17 C          26.8386   32.9904   24.8260 C.3     1  UNL1        0.0512
     18 N          22.2138   37.4107   25.8943 N.am    1  UNL1       -0.5887
     19 C          21.5744   37.6346   27.1101 C.ar    1  UNL1        0.0183
     20 N          20.7419   36.8614   27.7881 N.ar    1  UNL1       -0.1652
     21 N          20.2444   37.2199   28.8904 N.ar    1  UNL1       -0.1363
     22 C          20.5254   38.3935   29.4371 C.ar    1  UNL1        0.1580
     23 S          21.6497   39.0479   28.2067 S.2     1  UNL1       -0.0641
     24 S          19.9604   39.1041   30.9473 S.3     1  UNL1       -0.0819
     25 C          18.3202   38.3686   31.1917 C.3     1  UNL1        0.0904
     26 C          17.5246   39.2212   32.1463 C.ar    1  UNL1       -0.0109
     27 C          18.1712   39.9393   33.1348 C.ar    1  UNL1       -0.0037
     28 C          17.4417   40.7249   34.0077 C.ar    1  UNL1       -0.0046
     29 C          16.0651   40.7846   33.8980 C.ar    1  UNL1       -0.0219
     30 C          15.4182   40.0627   32.9126 C.ar    1  UNL1       -0.0046
     31 C          16.1479   39.2805   32.0370 C.ar    1  UNL1       -0.0037
     32 C          15.2695   41.6372   34.8526 C.3     1  UNL1        0.0310
@<TRIPOS>UNITY_ATOM_ATTR
18 1
charge -1
@<TRIPOS>BOND
     1    10    11    1
     2    11     9    1
     3     9     3    1
     4     3     8   ar
     5     3     4   ar
     6     4     5   ar
     7     5     6   ar
     8     5     1    1
     9     6     7   ar
    10     7     8   ar
    11     7    15    1
    12     8    12    1
    13    12    13    1
    14    13    14    1
    15    15    16    1
    16    16    17    1
    17     1     2    2
    18     1    18    1
    19    18    19    1
    20    19    23   ar
    21    19    20   ar
    22    20    21   ar
    23    21    22   ar
    24    22    23   ar
    25    22    24    1
    26    24    25    1
    27    25    26    1
    28    26    31   ar
    29    26    27   ar
    30    27    28   ar
    31    28    29   ar
    32    29    30   ar
    33    29    32    1
    34    30    31   ar
@<TRIPOS>MOLECULE
ZINC20976274
 34 36 0 0 0
SMALL
GASTEIGER

@<TRIPOS>ATOM
      1 C          11.6781   37.6164   26.6391 C.ar    1  UNL1        0.2151
      2 C          11.3230   36.3668   25.9476 C.ar    1  UNL1        0.2224
      3 O          11.5167   35.2771   26.4633 O.2     1  UNL1       -0.2846
      4 C          10.7456   36.4818   24.6563 C.ar    1  UNL1        0.0586
      5 C          10.5629   37.7258   24.1540 C.ar    1  UNL1        0.0641
      6 N          10.9218   38.8227   24.8660 N.ar    1  UNL1       -0.2334
      7 N          11.4505   38.7628   26.0321 N.ar    1  UNL1       -0.1555
      8 C           9.9532   37.8937   22.7860 C.3     1  UNL1        0.0523
      9 C          10.7096   40.0828   24.2968 C.ar    1  UNL1        0.0824
     10 C           9.6856   40.8956   24.7669 C.ar    1  UNL1        0.0191
     11 C           9.4828   42.1414   24.2070 C.ar    1  UNL1        0.0015
     12 C          10.2908   42.5758   23.1718 C.ar    1  UNL1        0.0039
     13 C          11.3105   41.7692   22.7013 C.ar    1  UNL1        0.0729
     14 C          11.5225   40.5243   23.2607 C.ar    1  UNL1        0.0230
     15 C          12.1919   42.2491   21.5770 C.3     1  UNL1        0.4186
     16 F          11.6717   41.8075   20.3556 F       1  UNL1       -0.1659
     17 F          12.2388   43.6473   21.5856 F       1  UNL1       -0.1659
     18 F          13.4832   41.7381   21.7460 F       1  UNL1       -0.1659
     19 C          12.2828   37.5853   27.9845 C.2     1  UNL1        0.3646
     20 O          11.6044   37.8337   28.9613 O.2     1  UNL1       -0.2430
     21 O          13.5875   37.2812   28.1298 O.3     1  UNL1       -0.4341
     22 C          14.1158   37.2738   29.4822 C.3     1  UNL1        0.2930
     23 N          14.4992   39.2908   30.8620 N.am    1  UNL1       -0.2724
     24 C          14.8095   38.5830   29.7576 C.2     1  UNL1        0.2705
     25 O          15.6469   38.9999   28.9856 O.2     1  UNL1       -0.2708
     26 C          12.2200   39.6358   31.6787 C.3     1  UNL1        0.0233
     27 C          13.4878   38.7873   31.7945 C.3     1  UNL1        0.0939
     28 C          15.1736   40.5635   31.1297 C.3     1  UNL1        0.1202
     29 C          16.2101   40.3662   32.2056 C.ar    1  UNL1       -0.0023
     30 C          17.1491   39.3589   32.0844 C.ar    1  UNL1       -0.0026
     31 C          18.1030   39.1810   33.0690 C.ar    1  UNL1       -0.0003
     32 C          18.1115   40.0039   34.1798 C.ar    1  UNL1       -0.0000
     33 C          17.1690   41.0075   34.3037 C.ar    1  UNL1       -0.0003
     34 C          16.2184   41.1888   33.3166 C.ar    1  UNL1       -0.0026
@<TRIPOS>BOND
     1    26    27    1
     2    27    23    1
     3    23    28    1
     4    23    24   am
     5    28    29    1
     6    29    34   ar
     7    29    30   ar
     8    30    31   ar
     9    31    32   ar
    10    32    33   ar
    11    33    34   ar
    12    24    25    2
    13    24    22    1
    14    22    21    1
    15    21    19    1
    16    19    20    2
    17    19     1    1
    18     1     7   ar
    19     1     2   ar
    20     2     3    2
    21     2     4   ar
    22     4     5   ar
    23     5     6   ar
    24     5     8    1
    25     6     7   ar
    26     6     9    1
    27     9    14   ar
    28     9    10   ar
    29    10    11   ar
    30    11    12   ar
    31    12    13   ar
    32    13    14   ar
    33    13    15    1
    34    15    16    1
    35    15    17    1
    36    15    18    1
@<TRIPOS>MOLECULE
ZINC29135650
 32 35 0 0 0
SMALL
GASTEIGER

@<TRIPOS>ATOM
      1 N          23.2528   39.4301   28.6573 N.ar    1  UNL1       -0.3065
      2 C          24.3869   38.7849   29.1230 C.ar    1  UNL1        0.0793
      3 C          25.7335   38.8552   28.8004 C.ar    1  UNL1        0.0201
      4 C          26.6420   38.0588   29.4668 C.ar    1  UNL1        0.0215
      5 C          26.2172   37.1867   30.4582 C.ar    1  UNL1        0.1238
      6 C          24.8838   37.1038   30.7915 C.ar    1  UNL1        0.0405
      7 C          23.9512   37.9039   30.1263 C.ar    1  UNL1        0.1005
      8 N          22.6043   38.0504   30.2307 N.ar    1  UNL1       -0.2211
      9 C          22.1903   38.9426   29.3647 C.ar    1  UNL1        0.1717
     10 S          27.3927   36.1779   31.2978 S.O2    1  UNL1        0.0633
     11 O          28.5795   36.9503   31.4168 O.2     1  UNL1       -0.1528
     12 O          26.7248   35.6288   32.4256 O.2     1  UNL1       -0.1528
     13 N          27.7523   34.9086   30.2967 N.3     1  UNL1       -0.1555
     14 C          27.8812   33.5464   30.8317 C.3     1  UNL1        0.0958
     15 C          26.9528   32.6182   30.0338 C.3     1  UNL1        0.0192
     16 C          27.2767   32.7408   28.5431 C.3     1  UNL1        0.0030
     17 C          27.0306   34.1794   28.0826 C.3     1  UNL1        0.0192
     18 C          27.9545   35.1244   28.8574 C.3     1  UNL1        0.0958
     19 C          23.2023   40.4464   27.6033 C.3     1  UNL1        0.1080
     20 C          23.7987   41.7544   28.1270 C.3     1  UNL1        0.0245
     21 C          23.2591   43.9932   29.0959 C.3     1  UNL1        0.0001
     22 C          22.6703   42.7323   28.4601 C.3     1  UNL1        0.0020
     23 S          20.5149   39.4441   29.1499 S.3     1  UNL1       -0.0673
     24 C          19.6774   38.1655   30.1194 C.3     1  UNL1        0.1527
     25 C          19.0841   38.7832   31.3593 C.ar    1  UNL1        0.2477
     26 N          19.7418   39.2123   32.4095 N.ar    1  UNL1       -0.1942
     27 C          18.8069   39.6778   33.2568 C.ar    1  UNL1        0.1801
     28 N          17.6494   39.5066   32.6915 N.ar    1  UNL1       -0.0606
     29 O          17.7871   38.9988   31.5986 O.2     1  UNL1       -0.3364
     30 C          19.0554   40.2813   34.6153 C.3     1  UNL1        0.0621
     31 C          20.2619   39.5992   35.2634 C.3     1  UNL1        0.0081
     32 C          19.3354   41.7778   34.4650 C.3     1  UNL1        0.0081
@<TRIPOS>BOND
     1    21    22    1
     2    22    20    1
     3    20    19    1
     4    19     1    1
     5     1     9   ar
     6     1     2   ar
     7     2     7   ar
     8     2     3   ar
     9     3     4   ar
    10     4     5   ar
    11     5     6   ar
    12     5    10    1
    13     6     7   ar
    14     7     8   ar
    15     8     9   ar
    16     9    23    1
    17    23    24    1
    18    24    25    1
    19    25    29   ar
    20    25    26   ar
    21    26    27   ar
    22    27    28   ar
    23    27    30    1
    24    28    29   ar
    25    30    31    1
    26    30    32    1
    27    10    11    2
    28    10    12    2
    29    10    13    1
    30    13    18    1
    31    13    14    1
    32    14    15    1
    33    15    16    1
    34    16    17    1
    35    17    18    1
@<TRIPOS>MOLECULE
ZINC09895861
 34 36 0 0 0
SMALL
GASTEIGER

@<TRIPOS>ATOM
      1 N          23.0590   40.9514   27.6694 N.ar    1  UNL1       -0.2892
      2 C          22.1990   40.3432   28.4687 C.ar    1  UNL1        0.2672
      3 O          21.5207   40.9634   29.2657 O.2     1  UNL1       -0.2664
      4 C          22.1012   38.8721   28.3468 C.ar    1  UNL1        0.0869
      5 C          21.3160   38.0005   29.0295 C.2     1  UNL1        0.0113
      6 S          23.2918   38.5539   27.0525 S.2     1  UNL1       -0.0641
      7 C          23.8155   40.2382   26.7766 C.ar    1  UNL1        0.1056
      8 C          24.7642   40.7152   25.8653 C.2     1  UNL1        0.1292
      9 C          20.5332   38.4651   30.1826 C.ar    1  UNL1        0.0007
     10 C          19.1370   38.5379   30.0985 C.ar    1  UNL1        0.0002
     11 C          18.4102   38.9650   31.1731 C.ar    1  UNL1        0.0064
     12 C          19.0599   39.3399   32.3529 C.ar    1  UNL1        0.0756
     13 C          20.4540   39.2727   32.4365 C.ar    1  UNL1        0.0064
     14 C          21.1829   38.8410   31.3651 C.ar    1  UNL1        0.0002
     15 C          18.2735   39.8077   33.5114 C.2     1  UNL1        0.3413
     16 O          18.8384   40.2712   34.4819 O.2     1  UNL1       -0.2449
     17 O          16.9290   39.7206   33.4924 O.3     1  UNL1       -0.4413
     18 C          16.1873   40.8580   34.0066 C.3     1  UNL1        0.2560
     19 C          25.1169   42.1030   25.8596 C.1     1  UNL1        0.1057
     20 N          25.3967   43.2040   25.8550 N.1     1  UNL1       -0.1907
     21 C          25.3764   39.8240   24.9475 C.2     1  UNL1        0.2070
     22 O          26.1598   38.9810   25.3472 O.2     1  UNL1       -0.2858
     23 C          25.0640   39.9180   23.5066 C.ar    1  UNL1        0.0399
     24 C          26.0961   39.9265   22.5652 C.ar    1  UNL1        0.0063
     25 C          25.8010   40.0195   21.2231 C.ar    1  UNL1        0.0370
     26 C          24.4779   40.0948   20.8043 C.ar    1  UNL1        0.1387
     27 C          23.4480   40.0816   21.7375 C.ar    1  UNL1        0.0370
     28 C          23.7352   39.9936   23.0815 C.ar    1  UNL1        0.0063
     29 O          24.1909   40.1812   19.4804 O.3     1  UNL1       -0.4714
     30 C          24.9998   39.4105   18.5895 C.3     1  UNL1        0.2525
     31 C          23.2046   42.4076   27.7388 C.3     1  UNL1        0.1096
     32 C          24.0591   42.7774   28.9529 C.3     1  UNL1        0.0246
     33 C          25.1680   44.7731   29.9676 C.3     1  UNL1        0.0001
     34 C          23.9191   44.2740   29.2382 C.3     1  UNL1        0.0020
@<TRIPOS>BOND
     1    33    34    1
     2    34    32    1
     3    32    31    1
     4    31     1    1
     5     1     7   ar
     6     1     2   ar
     7     2     3    2
     8     2     4   ar
     9     4     5    2
    10     4     6   ar
    11     5     9    1
    12     9    14   ar
    13     9    10   ar
    14    10    11   ar
    15    11    12   ar
    16    12    13   ar
    17    12    15    1
    18    13    14   ar
    19    15    16    2
    20    15    17    1
    21    17    18    1
    22     6     7   ar
    23     7     8    2
    24     8    19    1
    25     8    21    1
    26    19    20    3
    27    21    22    2
    28    21    23    1
    29    23    28   ar
    30    23    24   ar
    31    24    25   ar
    32    25    26   ar
    33    26    27   ar
    34    26    29    1
    35    27    28   ar
    36    29    30    1
@<TRIPOS>MOLECULE
ZINC17133604
 34 36 0 0 0
SMALL
GASTEIGER

@<TRIPOS>ATOM
      1 O          27.7624   40.0139   28.8589 O.3     1  UNL1       -0.4368
      2 C          27.7002   41.0703   28.0225 C.2     1  UNL1        0.3430
      3 O          28.3128   42.0886   28.2822 O.2     1  UNL1       -0.2448
      4 C          26.8953   40.9913   26.8018 C.ar    1  UNL1        0.0915
      5 C          27.3231   40.2165   25.6608 C.ar    1  UNL1       -0.0119
      6 C          26.5166   40.2113   24.5847 C.ar    1  UNL1        0.0051
      7 S          25.1535   41.2404   25.0884 S.2     1  UNL1       -0.0767
      8 C          25.6782   41.6545   26.6858 C.ar    1  UNL1        0.0863
      9 C          26.7154   39.5002   23.2709 C.3     1  UNL1        0.0379
     10 C          28.6204   39.4498   25.6739 C.3     1  UNL1        0.0315
     11 N          25.0398   42.4527   27.6220 N.am    1  UNL1       -0.2788
     12 C          25.1305   43.7947   27.5374 C.2     1  UNL1        0.2255
     13 O          25.7707   44.3040   26.6420 O.2     1  UNL1       -0.2748
     14 H          24.5201   42.0393   28.3487 H       1  UNL1        0.1553
     15 C          24.4365   44.6625   28.5553 C.3     1  UNL1        0.0692
     16 C          24.4403   46.1151   28.0746 C.3     1  UNL1        0.0091
     17 C          22.9928   44.1873   28.7311 C.3     1  UNL1        0.0091
     18 C          25.1716   44.5663   29.8936 C.3     1  UNL1        0.0091
     19 C          26.5082   39.5394   29.4157 C.3     1  UNL1        0.2770
     20 C          26.0685   38.3002   28.6795 C.2     1  UNL1        0.2181
     21 O          26.8923   37.4890   28.3109 O.2     1  UNL1       -0.2873
     22 C          21.5847   37.8771   26.2967 C.3     1  UNL1        0.0500
     23 C          22.6727   37.8924   27.3393 C.ar    1  UNL1        0.0373
     24 C          23.9640   38.1859   27.1129 C.ar    1  UNL1        0.0168
     25 C          24.6469   38.0749   28.4087 C.ar    1  UNL1        0.0512
     26 C          23.6735   37.7083   29.3189 C.ar    1  UNL1        0.0401
     27 N          22.5030   37.6102   28.6640 N.ar    1  UNL1       -0.3314
     28 C          23.8861   37.4646   30.7908 C.3     1  UNL1        0.0501
     29 C          21.2265   37.2460   29.2838 C.3     1  UNL1        0.1348
     30 C          20.4773   38.5159   29.6922 C.3     1  UNL1        0.1378
     31 C          20.8422   38.8955   31.1435 C.3     1  UNL1        0.0341
     32 C          19.4793   39.3781   31.7106 C.3     1  UNL1        0.0346
     33 C          18.4999   38.4415   30.9592 C.3     1  UNL1        0.1422
     34 O          19.0647   38.2822   29.6481 O.3     1  UNL1       -0.3543
@<TRIPOS>BOND
     1    22    23    1
     2    23    27   ar
     3    23    24   ar
     4    24    25   ar
     5    25    26   ar
     6    25    20    1
     7    26    27   ar
     8    26    28    1
     9    27    29    1
    10    29    30    1
    11    30    34    1
    12    30    31    1
    13    31    32    1
    14    32    33    1
    15    33    34    1
    16    20    21    2
    17    20    19    1
    18    19     1    1
    19     1     2    1
    20     2     3    2
    21     2     4    1
    22     4     8   ar
    23     4     5   ar
    24     5     6   ar
    25     5    10    1
    26     6     7   ar
    27     6     9    1
    28     7     8   ar
    29     8    11    1
    30    11    12   am
    31    12    13    2
    32    12    15    1
    33    15    16    1
    34    15    17    1
    35    15    18    1
    36    11    14    1
@<TRIPOS>MOLECULE
ZINC13141779
 35 38 0 0 0
SMALL
GASTEIGER

@<TRIPOS>ATOM
      1 C          19.9856   38.3186   29.5882 C.2     1  UNL1        0.3613
      2 O          20.3304   37.1560   29.5131 O.2     1  UNL1       -0.2431
      3 N          16.5824   39.0510   30.6007 N.ar    1  UNL1       -0.2165
      4 C          16.6048   39.3852   31.9074 C.ar    1  UNL1        0.2763
      5 O          15.5792   39.6820   32.4921 O.2     1  UNL1       -0.2655
      6 C          17.8956   39.3785   32.6098 C.ar    1  UNL1        0.0593
      7 C          18.0248   39.7028   33.9566 C.ar    1  UNL1        0.0048
      8 C          19.2733   39.6772   34.5408 C.ar    1  UNL1        0.0002
      9 C          20.3965   39.3324   33.8005 C.ar    1  UNL1        0.0001
     10 C          20.2893   39.0083   32.4646 C.ar    1  UNL1        0.0019
     11 C          19.0393   39.0274   31.8559 C.ar    1  UNL1        0.0304
     12 C          18.8386   38.6945   30.4360 C.ar    1  UNL1        0.1764
     13 N          17.6277   38.7359   29.9341 N.ar    1  UNL1       -0.1602
     14 C          15.2924   39.0550   29.9064 C.3     1  UNL1        0.1307
     15 C          14.9132   37.6223   29.5263 C.3     1  UNL1        0.0265
     16 C          13.3912   37.4709   29.5626 C.3     1  UNL1        0.0021
     17 C          11.3299   38.2604   30.7330 C.3     1  UNL1        0.0000
     18 C          12.8469   38.0978   30.8478 C.3     1  UNL1        0.0001
     19 O          20.6510   39.2648   28.8968 O.3     1  UNL1       -0.4358
     20 C          21.5578   38.8076   27.8589 C.3     1  UNL1        0.2770
     21 C          22.9527   39.2906   28.1620 C.2     1  UNL1        0.2182
     22 O          23.2084   40.4759   28.1130 O.2     1  UNL1       -0.2873
     23 C          23.9996   38.3299   28.5155 C.ar    1  UNL1        0.0515
     24 C          25.0146   37.7577   27.6204 C.ar    1  UNL1        0.0172
     25 C          25.7593   36.9293   28.3713 C.ar    1  UNL1        0.0415
     26 N          25.2887   36.9425   29.6549 N.ar    1  UNL1       -0.3134
     27 C          24.2390   37.7802   29.7610 C.ar    1  UNL1        0.0443
     28 C          23.4587   38.0653   31.0184 C.3     1  UNL1        0.0505
     29 C          26.9270   36.1148   27.8775 C.3     1  UNL1        0.0504
     30 C          25.8265   36.1957   30.7120 C.ar    1  UNL1        0.0634
     31 C          26.8474   36.7258   31.4893 C.ar    1  UNL1        0.0175
     32 C          27.3722   35.9894   32.5334 C.ar    1  UNL1        0.0015
     33 C          26.8892   34.7210   32.7979 C.ar    1  UNL1        0.0001
     34 C          25.8757   34.1884   32.0225 C.ar    1  UNL1        0.0015
     35 C          25.3433   34.9220   30.9804 C.ar    1  UNL1        0.0175
@<TRIPOS>BOND
     1    17    18    1
     2    18    16    1
     3    16    15    1
     4    15    14    1
     5    14     3    1
     6     3    13   ar
     7     3     4   ar
     8     4     5    2
     9     4     6   ar
    10     6    11   ar
    11     6     7   ar
    12     7     8   ar
    13     8     9   ar
    14     9    10   ar
    15    10    11   ar
    16    11    12   ar
    17    12    13   ar
    18    12     1    1
    19     1     2    2
    20     1    19    1
    21    19    20    1
    22    20    21    1
    23    21    22    2
    24    21    23    1
    25    23    27   ar
    26    23    24   ar
    27    24    25   ar
    28    25    26   ar
    29    25    29    1
    30    26    27   ar
    31    26    30    1
    32    27    28    1
    33    30    35   ar
    34    30    31   ar
    35    31    32   ar
    36    32    33   ar
    37    33    34   ar
    38    34    35   ar
@<TRIPOS>MOLECULE
ZINC09672916
 33 35 0 0 0
SMALL
GASTEIGER

@<TRIPOS>ATOM
      1 C          23.6356   38.7798   27.6764 C.3     1  UNL1        0.0643
      2 C          24.9350   38.4558   26.9830 C.3     1  UNL1        0.1023
      3 C          25.9170   37.7955   27.6322 C.2     1  UNL1        0.0437
      4 C          27.2202   37.4694   26.9457 C.3     1  UNL1        0.0427
      5 C          27.5310   38.5329   25.8942 C.3     1  UNL1        0.0232
      6 C          26.3694   38.5888   24.8962 C.3     1  UNL1        0.1569
      7 C          25.0937   38.8609   25.6461 C.2     1  UNL1        0.1664
      8 O          24.1847   39.4412   25.0863 O.2     1  UNL1       -0.2951
      9 C          28.8227   38.1690   25.1593 C.3     1  UNL1        0.0014
     10 N          25.7493   37.4063   28.9341 N.2     1  UNL1       -0.2579
     11 C          24.4975   37.2999   29.4730 C.2     1  UNL1        0.0612
     12 C          23.4577   37.9396   28.9069 C.2     1  UNL1        0.0714
     13 C          24.2843   36.4707   30.7132 C.3     1  UNL1        0.0520
     14 C          23.6293   42.9057   28.7828 C.ar    1  UNL1       -0.0222
     15 C          22.4364   42.2591   28.5183 C.ar    1  UNL1       -0.0046
     16 C          22.4384   40.9241   28.1601 C.ar    1  UNL1       -0.0043
     17 C          23.6334   40.2353   28.0666 C.ar    1  UNL1       -0.0174
     18 C          24.8258   40.8805   28.3365 C.ar    1  UNL1       -0.0043
     19 C          24.8242   42.2171   28.6893 C.ar    1  UNL1       -0.0046
     20 C          24.9980   44.7406   29.7361 C.3     1  UNL1        0.0050
     21 C          23.6270   44.3614   29.1724 C.3     1  UNL1        0.0264
     22 C          26.6122   39.6908   23.8975 C.2     1  UNL1        0.3237
     23 O          26.4943   39.4713   22.7152 O.2     1  UNL1       -0.2496
     24 O          26.9597   40.9162   24.3212 O.3     1  UNL1       -0.4441
     25 C          26.1639   42.0307   23.8390 C.3     1  UNL1        0.2556
     26 C          22.1708   37.8134   29.4804 C.2     1  UNL1        0.3387
     27 O          21.3341   37.1082   28.9480 O.2     1  UNL1       -0.2452
     28 O          21.8711   38.4747   30.6177 O.3     1  UNL1       -0.4447
     29 C          20.5287   38.9433   30.7613 C.3     1  UNL1        0.2203
     30 C          20.3862   39.6827   32.0932 C.3     1  UNL1        0.1049
     31 S          19.0815   38.9016   33.0820 S.3     1  UNL1       -0.1363
     32 C          19.7315   38.9397   34.7750 C.3     1  UNL1        0.0577
     33 C          20.4724   40.2581   35.0072 C.3     1  UNL1        0.0125
@<TRIPOS>BOND
     1    20    21    1
     2    21    14    1
     3    14    19   ar
     4    14    15   ar
     5    15    16   ar
     6    16    17   ar
     7    17    18   ar
     8    17     1    1
     9    18    19   ar
    10     1    12    1
    11     1     2    1
    12     2     7    1
    13     2     3    1
    14     3     4    1
    15     3    10    2
    16     4     5    1
    17     5     6    1
    18     5     9    1
    19     6     7    1
    20     6    22    1
    21     7     8    2
    22    22    23    2
    23    22    24    1
    24    24    25    1
    25    10    11    1
    26    11    13    1
    27    11    12    2
    28    12    26    1
    29    26    27    2
    30    26    28    1
    31    28    29    1
    32    29    30    1
    33    30    31    1
    34    31    32    1
    35    32    33    1
@<TRIPOS>MOLECULE
ZINC08763315
 31 33 0 0 0
SMALL
GASTEIGER

@<TRIPOS>ATOM
      1 C          21.2345   38.2968   29.8615 C.2     1  UNL1        0.0141
      2 C          20.7093   38.6946   31.0485 C.2     1  UNL1        0.0850
      3 C          19.2989   38.7517   31.4818 C.2     1  UNL1        0.2595
      4 O          18.3899   38.4146   30.7460 O.2     1  UNL1       -0.2690
      5 N          19.0735   39.1872   32.7099 N.am    1  UNL1       -0.2441
      6 C          20.0834   39.5642   33.5203 C.2     1  UNL1        0.1212
      7 S          19.9951   40.1559   35.1244 S.2     1  UNL1       -0.0272
      8 S          21.5349   39.2946   32.5161 S.3     1  UNL1       -0.0604
      9 C          23.4053   39.1208   28.9607 C.ar    1  UNL1        0.1390
     10 C          24.7778   38.9915   28.8227 C.ar    1  UNL1        0.0369
     11 C          25.4377   37.9331   29.4174 C.ar    1  UNL1        0.0031
     12 C          24.7361   36.9938   30.1558 C.ar    1  UNL1        0.0002
     13 C          23.3717   37.1076   30.3092 C.ar    1  UNL1        0.0030
     14 C          22.6889   38.1713   29.7077 C.ar    1  UNL1        0.0346
     15 O          22.7562   40.1603   28.3774 O.3     1  UNL1       -0.4706
     16 C          23.4816   40.9137   27.4035 C.3     1  UNL1        0.2328
     17 C          23.2527   44.2628   29.1311 C.ar    1  UNL1       -0.0002
     18 C          24.5599   44.7059   29.0500 C.ar    1  UNL1        0.0008
     19 C          25.5185   43.9225   28.4359 C.ar    1  UNL1        0.0112
     20 C          25.1700   42.6941   27.9026 C.ar    1  UNL1        0.0572
     21 C          23.8621   42.2511   27.9845 C.ar    1  UNL1        0.0317
     22 C          22.9030   43.0381   28.5943 C.ar    1  UNL1        0.0002
     23 CL         26.3735   41.7097   27.1306 Cl      1  UNL1       -0.0825
     24 C          17.6950   39.2676   33.1992 C.3     1  UNL1        0.0995
     25 C          17.1463   40.6738   32.9495 C.3     1  UNL1        0.0219
     26 C          15.6183   40.6220   32.8900 C.3     1  UNL1        0.0022
     27 C          15.1798   39.3690   32.1292 C.3     1  UNL1        0.0060
     28 C          15.1141   39.6782   30.6323 C.3     1  UNL1        0.0417
     29 C          14.7634   38.4233   29.8751 C.2     1  UNL1        0.0503
     30 O          13.6797   37.9104   30.0247 O.co2   1  UNL1       -0.5492
     31 O          15.6550   37.8754   29.0344 O.co2   1  UNL1       -0.5492
@<TRIPOS>UNITY_ATOM_ATTR
31 1
charge -1
@<TRIPOS>BOND
     1    17    22   ar
     2    17    18   ar
     3    18    19   ar
     4    19    20   ar
     5    20    21   ar
     6    20    23    1
     7    21    22   ar
     8    21    16    1
     9    16    15    1
    10    15     9    1
    11     9    14   ar
    12     9    10   ar
    13    10    11   ar
    14    11    12   ar
    15    12    13   ar
    16    13    14   ar
    17    14     1    1
    18     1     2    2
    19     2     8    1
    20     2     3    1
    21     3     4    2
    22     3     5   am
    23     5     6    1
    24     5    24    1
    25     6     7    2
    26     6     8    1
    27    24    25    1
    28    25    26    1
    29    26    27    1
    30    27    28    1
    31    28    29    1
    32    29    30   ar
    33    29    31   ar
@<TRIPOS>MOLECULE
ZINC30736304
 35 38 0 0 0
SMALL
GASTEIGER

@<TRIPOS>ATOM
      1 C          25.5249   38.5298   28.7936 C.ar    1  UNL1        0.1023
      2 C          24.3625   38.9620   28.0091 C.ar    1  UNL1        0.0383
      3 C          24.7062   40.1748   27.4412 C.ar    1  UNL1        0.0969
      4 N          25.9563   40.4714   27.8304 N.ar    1  UNL1       -0.2449
      5 N          26.4477   39.4541   28.6531 N.ar    1  UNL1       -0.1689
      6 C          25.9667   33.6918   31.8847 C.3     1  UNL1        0.0310
      7 C          25.8507   34.9578   31.0754 C.ar    1  UNL1       -0.0218
      8 C          26.5475   35.0820   29.8870 C.ar    1  UNL1       -0.0042
      9 C          26.4455   36.2392   29.1419 C.ar    1  UNL1        0.0012
     10 C          25.6382   37.2840   29.5891 C.ar    1  UNL1        0.0194
     11 C          24.9425   37.1551   30.7903 C.ar    1  UNL1        0.0012
     12 C          25.0480   35.9912   31.5242 C.ar    1  UNL1       -0.0042
     13 C          23.0888   38.2492   27.8581 C.2     1  UNL1        0.0097
     14 C          22.1362   38.3570   28.8122 C.2     1  UNL1        0.0820
     15 C          20.9077   37.6695   28.6666 C.2     1  UNL1        0.3415
     16 O          20.9027   36.4739   28.4404 O.2     1  UNL1       -0.2449
     17 O          19.7418   38.3399   28.7786 O.3     1  UNL1       -0.4435
     18 C          19.5856   39.1834   29.9214 C.3     1  UNL1        0.2306
     19 C          19.2106   38.3321   31.1362 C.3     1  UNL1        0.1466
     20 N          18.4013   39.1301   32.0606 N.am    1  UNL1       -0.2430
     21 C          17.0627   39.2611   31.9754 C.2     1  UNL1        0.2108
     22 O          16.3288   38.7595   31.1509 O.2     1  UNL1       -0.2762
     23 C          16.6652   40.1642   33.1261 C.3     1  UNL1       -0.0138
     24 N          17.9472   40.4719   33.7834 N.am    1  UNL1       -0.6124
     25 C          18.9005   39.8239   33.0899 C.2     1  UNL1        0.1377
     26 O          20.0830   39.8639   33.3676 O.2     1  UNL1       -0.2967
     27 C          15.7278   39.4340   34.0900 C.3     1  UNL1       -0.0127
     28 C          16.0095   41.4425   32.6000 C.3     1  UNL1       -0.0127
     29 C          26.6958   41.6763   27.4459 C.3     1  UNL1        0.1538
     30 C          26.0009   42.8916   28.0036 C.ar    1  UNL1        0.0021
     31 C          25.6650   42.9417   29.3436 C.ar    1  UNL1       -0.0023
     32 C          25.0228   44.0543   29.8540 C.ar    1  UNL1       -0.0003
     33 C          24.7252   45.1209   29.0266 C.ar    1  UNL1       -0.0000
     34 C          25.0619   45.0712   27.6868 C.ar    1  UNL1       -0.0003
     35 C          25.6998   43.9565   27.1753 C.ar    1  UNL1       -0.0023
@<TRIPOS>UNITY_ATOM_ATTR
24 1
charge -1
@<TRIPOS>BOND
     1     6     7    1
     2     7    12   ar
     3     7     8   ar
     4     8     9   ar
     5     9    10   ar
     6    10    11   ar
     7    10     1    1
     8    11    12   ar
     9     1     5   ar
    10     1     2   ar
    11     2     3   ar
    12     2    13    1
    13     3     4   ar
    14     4     5   ar
    15     4    29    1
    16    29    30    1
    17    30    35   ar
    18    30    31   ar
    19    31    32   ar
    20    32    33   ar
    21    33    34   ar
    22    34    35   ar
    23    13    14    2
    24    14    15    1
    25    15    16    2
    26    15    17    1
    27    17    18    1
    28    18    19    1
    29    19    20    1
    30    20    25   am
    31    20    21   am
    32    21    22    2
    33    21    23    1
    34    23    24    1
    35    23    27    1
    36    23    28    1
    37    24    25    1
    38    25    26    2
@<TRIPOS>MOLECULE
ZINC01830415
 31 34 0 0 0
SMALL
GASTEIGER

@<TRIPOS>ATOM
      1 C          22.9460   38.0653   27.9195 C.ar    1  UNL1        0.1990
      2 N          22.1937   38.3192   26.8738 N.ar    1  UNL1       -0.1217
      3 N          22.8724   38.9460   25.9764 N.ar    1  UNL1       -0.1278
      4 C          24.0992   39.1283   26.3986 C.ar    1  UNL1        0.1738
      5 N          24.1895   38.5720   27.6557 N.ar    1  UNL1       -0.2482
      6 C          25.3692   38.6133   28.3505 C.ar    1  UNL1        0.1782
      7 N          26.4391   39.1799   27.8426 N.ar    1  UNL1       -0.2155
      8 C          26.4411   39.7411   26.6358 C.ar    1  UNL1        0.1152
      9 C          25.3006   39.7679   25.8194 C.ar    1  UNL1        0.0565
     10 C          25.4588   40.4175   24.5241 C.ar    1  UNL1       -0.0104
     11 C          26.6788   40.9275   24.2353 C.ar    1  UNL1        0.0345
     12 S          27.6688   40.5738   25.6588 S.2     1  UNL1       -0.0701
     13 C          27.0682   41.6315   22.9728 C.3     1  UNL1        0.1746
     14 O          26.0372   41.3959   22.0005 O.3     1  UNL1       -0.3506
     15 C          24.7181   41.6315   22.4989 C.3     1  UNL1        0.1200
     16 C          24.3302   40.5424   23.5034 C.3     1  UNL1        0.0563
     17 C          23.7266   41.6229   21.3336 C.3     1  UNL1        0.0276
     18 C          24.4767   41.3521   20.0278 C.3     1  UNL1        0.0025
     19 C          22.6837   40.5265   21.5595 C.3     1  UNL1        0.0025
     20 S          25.4523   37.8930   29.9563 S.3     1  UNL1       -0.0760
     21 C          26.1734   36.2853   29.5427 C.3     1  UNL1        0.0772
     22 S          22.4474   37.2290   29.3880 S.3     1  UNL1       -0.0633
     23 C          21.7864   38.5492   30.4420 C.3     1  UNL1        0.1743
     24 C          20.2817   38.5515   30.3600 C.2     1  UNL1        0.3286
     25 O          19.7206   37.8716   29.5336 O.2     1  UNL1       -0.2491
     26 O          19.5646   39.3090   31.2049 O.3     1  UNL1       -0.4479
     27 C          18.8126   38.6157   32.2355 C.3     1  UNL1        0.2085
     28 C          18.9578   39.3629   33.5627 C.3     1  UNL1        0.0474
     29 C          20.4406   39.4847   33.9197 C.3     1  UNL1        0.0038
     30 C          19.4448   41.3560   35.2424 C.3     1  UNL1        0.0000
     31 C          20.5941   40.3484   35.1732 C.3     1  UNL1        0.0001
@<TRIPOS>BOND
     1    30    31    1
     2    31    29    1
     3    29    28    1
     4    28    27    1
     5    27    26    1
     6    26    24    1
     7    24    25    2
     8    24    23    1
     9    23    22    1
    10    22     1    1
    11     1     5   ar
    12     1     2   ar
    13     2     3   ar
    14     3     4   ar
    15     4     9   ar
    16     4     5   ar
    17     5     6   ar
    18     6     7   ar
    19     6    20    1
    20     7     8   ar
    21     8    12   ar
    22     8     9   ar
    23     9    10   ar
    24    10    16    1
    25    10    11   ar
    26    11    12   ar
    27    11    13    1
    28    13    14    1
    29    14    15    1
    30    15    16    1
    31    15    17    1
    32    17    18    1
    33    17    19    1
    34    20    21    1
@<TRIPOS>MOLECULE
ZINC10064469
 33 35 0 0 0
SMALL
GASTEIGER

@<TRIPOS>ATOM
      1 N          23.4050   38.2320   26.9493 N.ar    1  UNL1       -0.2988
      2 C          23.7871   39.1878   26.0326 C.ar    1  UNL1        0.0679
      3 C          23.3711   39.3263   24.6959 C.ar    1  UNL1        0.0180
      4 C          23.8502   40.3285   23.9115 C.ar    1  UNL1        0.0080
      5 C          24.7731   41.2576   24.4053 C.ar    1  UNL1        0.0762
      6 C          25.2039   41.1439   25.7319 C.ar    1  UNL1        0.0144
      7 C          24.7139   40.1290   26.5121 C.ar    1  UNL1        0.0481
      8 S          24.9756   39.6217   28.1930 S.2     1  UNL1       -0.0514
      9 C          23.9097   38.2538   28.2119 C.ar    1  UNL1        0.1676
     10 N          23.6521   37.4219   29.2184 N.am    1  UNL1       -0.1555
     11 C          24.2488   37.5954   30.3932 C.2     1  UNL1        0.2516
     12 O          23.5905   37.8924   31.3715 O.2     1  UNL1       -0.2726
     13 C          25.7412   37.4239   30.5129 C.3     1  UNL1        0.1129
     14 C          26.0895   35.9620   30.4000 C.ar    1  UNL1       -0.0209
     15 C          26.6347   35.4698   29.2289 C.ar    1  UNL1       -0.0259
     16 C          26.9544   34.1289   29.1255 C.ar    1  UNL1       -0.0088
     17 C          26.7288   33.2802   30.1930 C.ar    1  UNL1       -0.0225
     18 C          26.1890   33.7735   31.3661 C.ar    1  UNL1       -0.0088
     19 C          25.8643   35.1134   31.4677 C.ar    1  UNL1       -0.0259
     20 C          25.2704   35.6501   32.7445 C.3     1  UNL1        0.0307
     21 C          27.0770   31.8183   30.0801 C.3     1  UNL1        0.0310
     22 C          26.8807   36.3951   28.0651 C.3     1  UNL1        0.0307
     23 C          25.2836   42.3387   23.5413 C.2     1  UNL1        0.3412
     24 O          26.1144   43.1160   23.9678 O.2     1  UNL1       -0.2449
     25 O          24.8286   42.4643   22.2793 O.3     1  UNL1       -0.4454
     26 C          25.7129   42.0286   21.2133 C.3     1  UNL1        0.2089
     27 C          25.0434   40.9020   20.4236 C.3     1  UNL1        0.0513
     28 C          22.4482   37.1918   26.5635 C.3     1  UNL1        0.2179
     29 C          21.1219   37.4578   27.2277 C.2     1  UNL1        0.3404
     30 O          20.5128   36.5514   27.7450 O.2     1  UNL1       -0.2479
     31 O          20.6172   38.7014   27.2448 O.3     1  UNL1       -0.4472
     32 C          21.2456   40.6674   28.5372 C.3     1  UNL1        0.0513
     33 C          20.4833   39.3408   28.5415 C.3     1  UNL1        0.2086
@<TRIPOS>BOND
     1    32    33    1
     2    33    31    1
     3    31    29    1
     4    29    30    2
     5    29    28    1
     6    28     1    1
     7     1     9   ar
     8     1     2   ar
     9     2     7   ar
    10     2     3   ar
    11     3     4   ar
    12     4     5   ar
    13     5     6   ar
    14     5    23    1
    15     6     7   ar
    16     7     8   ar
    17     8     9   ar
    18     9    10    2
    19    10    11    1
    20    11    12    2
    21    11    13    1
    22    13    14    1
    23    14    19   ar
    24    14    15   ar
    25    15    16   ar
    26    15    22    1
    27    16    17   ar
    28    17    18   ar
    29    17    21    1
    30    18    19   ar
    31    19    20    1
    32    23    24    2
    33    23    25    1
    34    25    26    1
    35    26    27    1
@<TRIPOS>MOLECULE
ZINC06173287
 31 32 0 0 0
SMALL
GASTEIGER

@<TRIPOS>ATOM
      1 C          22.0359   37.2685   28.7928 C.2     1  UNL1        0.0067
      2 C          20.8066   37.6432   29.2033 C.2     1  UNL1        0.0819
      3 C          25.2008   40.0920   28.7243 C.ar    1  UNL1        0.1222
      4 C          25.0816   39.2172   29.7902 C.ar    1  UNL1        0.0199
      5 C          24.0525   38.3001   29.8224 C.ar    1  UNL1        0.0014
      6 C          23.1341   38.2480   28.7689 C.ar    1  UNL1        0.0003
      7 C          23.2644   39.1319   27.6929 C.ar    1  UNL1        0.0014
      8 C          24.2956   40.0470   27.6782 C.ar    1  UNL1        0.0199
      9 S          26.5158   41.2643   28.6955 S.O2    1  UNL1        0.0633
     10 O          27.3708   40.8892   27.6243 O.2     1  UNL1       -0.1528
     11 O          26.9795   41.3875   30.0330 O.2     1  UNL1       -0.1528
     12 N          25.8582   42.7279   28.2859 N.3     1  UNL1       -0.1555
     13 C          27.0469   44.4348   26.9994 C.3     1  UNL1        0.0206
     14 C          26.0575   43.2693   26.9392 C.3     1  UNL1        0.0958
     15 C          25.0771   43.4813   29.2701 C.3     1  UNL1        0.0958
     16 C          23.6231   43.5752   28.8035 C.3     1  UNL1        0.0206
     17 C          20.5049   39.0591   29.4104 C.2     1  UNL1        0.3417
     18 O          20.2018   39.7610   28.4645 O.2     1  UNL1       -0.2449
     19 O          20.5631   39.5867   30.6507 O.3     1  UNL1       -0.4403
     20 C          20.0880   38.7728   31.7248 C.3     1  UNL1        0.2384
     21 C          18.8323   39.3786   32.2967 C.ar    1  UNL1        0.0563
     22 C          17.5975   39.0076   31.8000 C.ar    1  UNL1        0.0137
     23 C          16.4444   39.5635   32.3247 C.ar    1  UNL1        0.0577
     24 C          16.5252   40.4920   33.3478 C.ar    1  UNL1        0.0145
     25 C          17.7577   40.8658   33.8467 C.ar    1  UNL1        0.0377
     26 C          18.9149   40.3048   33.3259 C.ar    1  UNL1        0.1438
     27 CL         14.8941   39.0954   31.6993 Cl      1  UNL1       -0.0823
     28 O          20.1284   40.6668   33.8198 O.3     1  UNL1       -0.4238
     29 C          20.3669   40.4130   35.2056 C.3     1  UNL1        0.5086
     30 F          19.7225   41.3871   35.9758 F       1  UNL1       -0.1550
     31 F          19.8692   39.1492   35.5406 F       1  UNL1       -0.1550
@<TRIPOS>BOND
     1    13    14    1
     2    14    12    1
     3    12    15    1
     4    12     9    1
     5    15    16    1
     6     9    10    2
     7     9    11    2
     8     9     3    1
     9     3     8   ar
    10     3     4   ar
    11     4     5   ar
    12     5     6   ar
    13     6     7   ar
    14     6     1    1
    15     7     8   ar
    16     1     2    2
    17     2    17    1
    18    17    18    2
    19    17    19    1
    20    19    20    1
    21    20    21    1
    22    21    26   ar
    23    21    22   ar
    24    22    23   ar
    25    23    24   ar
    26    23    27    1
    27    24    25   ar
    28    25    26   ar
    29    26    28    1
    30    28    29    1
    31    29    30    1
    32    29    31    1
@<TRIPOS>MOLECULE
ZINC04557010
 35 38 0 0 0
SMALL
GASTEIGER

@<TRIPOS>ATOM
      1 C          23.8979   37.4040   30.4479 C.3     1  UNL1        0.2809
      2 C          24.1773   37.5995   28.9422 C.3     1  UNL1        0.2671
      3 C          22.9737   38.4728   28.4943 C.3     1  UNL1        0.2446
      4 C          21.8534   37.9230   29.4127 C.3     1  UNL1        0.2050
      5 O          22.5005   37.6347   30.6624 O.3     1  UNL1       -0.3225
      6 C          25.0038   35.9886   32.0349 C.3     1  UNL1        0.1770
      7 O          24.2337   36.0697   30.8339 O.3     1  UNL1       -0.3250
      8 C          20.7630   38.9779   29.6104 C.3     1  UNL1        0.2420
      9 O          20.8193   39.4833   30.9704 O.3     1  UNL1       -0.4426
     10 C          19.8005   39.1541   31.7879 C.2     1  UNL1        0.3413
     11 O          19.0297   38.2699   31.4720 O.2     1  UNL1       -0.2449
     12 C          19.6205   39.8682   33.0684 C.ar    1  UNL1        0.0756
     13 C          20.6384   39.8613   34.0242 C.ar    1  UNL1        0.0064
     14 C          20.4658   40.5347   35.2157 C.ar    1  UNL1        0.0002
     15 C          19.2831   41.2065   35.4693 C.ar    1  UNL1        0.0000
     16 C          18.2681   41.2125   34.5290 C.ar    1  UNL1        0.0002
     17 C          18.4296   40.5480   33.3310 C.ar    1  UNL1        0.0064
     18 O          23.2216   39.8794   28.7561 O.3     1  UNL1       -0.4425
     19 C          23.5174   40.6559   27.6957 C.2     1  UNL1        0.3413
     20 O          23.5404   40.1768   26.5797 O.2     1  UNL1       -0.2449
     21 C          23.8138   42.0900   27.8902 C.ar    1  UNL1        0.0756
     22 C          25.0016   42.6337   27.3972 C.ar    1  UNL1        0.0064
     23 C          25.2723   43.9735   27.5827 C.ar    1  UNL1        0.0002
     24 C          24.3699   44.7782   28.2555 C.ar    1  UNL1        0.0000
     25 C          23.1909   44.2459   28.7465 C.ar    1  UNL1        0.0002
     26 C          22.9076   42.9078   28.5681 C.ar    1  UNL1        0.0064
     27 O          25.4309   38.3027   28.7363 O.3     1  UNL1       -0.4400
     28 C          26.5641   37.5916   28.8941 C.2     1  UNL1        0.3414
     29 O          27.4456   38.0066   29.6194 O.2     1  UNL1       -0.2449
     30 C          26.7348   36.3070   28.1849 C.ar    1  UNL1        0.0756
     31 C          26.6412   36.2568   26.7926 C.ar    1  UNL1        0.0064
     32 C          26.8070   35.0549   26.1364 C.ar    1  UNL1        0.0002
     33 C          27.0543   33.8988   26.8553 C.ar    1  UNL1        0.0000
     34 C          27.1425   33.9404   28.2356 C.ar    1  UNL1        0.0002
     35 C          26.9846   35.1366   28.9041 C.ar    1  UNL1        0.0064
@<TRIPOS>BOND
     1     6     7    1
     2     7     1    1
     3     1     5    1
     4     1     2    1
     5     2     3    1
     6     2    27    1
     7     3     4    1
     8     3    18    1
     9     4     5    1
    10     4     8    1
    11     8     9    1
    12     9    10    1
    13    10    11    2
    14    10    12    1
    15    12    17   ar
    16    12    13   ar
    17    13    14   ar
    18    14    15   ar
    19    15    16   ar
    20    16    17   ar
    21    18    19    1
    22    19    20    2
    23    19    21    1
    24    21    26   ar
    25    21    22   ar
    26    22    23   ar
    27    23    24   ar
    28    24    25   ar
    29    25    26   ar
    30    27    28    1
    31    28    29    2
    32    28    30    1
    33    30    35   ar
    34    30    31   ar
    35    31    32   ar
    36    32    33   ar
    37    33    34   ar
    38    34    35   ar
@<TRIPOS>MOLECULE
ZINC18251774
 32 35 0 0 0
SMALL
GASTEIGER

@<TRIPOS>ATOM
      1 C          13.5237   37.8020   29.6965 C.ar    1  UNL1        0.0995
      2 C          12.1535   37.7263   29.9757 C.ar    1  UNL1        0.0101
      3 C          11.6305   38.5748   30.9347 C.ar    1  UNL1        0.0209
      4 C          12.4652   39.4697   31.5817 C.ar    1  UNL1        0.0994
      5 N          13.7536   39.5224   31.3088 N.ar    1  UNL1       -0.2371
      6 C          14.3071   38.7337   30.4001 C.ar    1  UNL1        0.1183
      7 C          14.1327   36.9223   28.6844 C.2     1  UNL1        0.3437
      8 O          15.0571   36.1945   28.9890 O.2     1  UNL1       -0.2448
      9 O          13.6650   36.9246   27.4204 O.3     1  UNL1       -0.4353
     10 C          12.7671   38.0046   27.0518 C.3     1  UNL1        0.2929
     11 N          10.9333   38.1685   25.3999 N.am    1  UNL1       -0.2683
     12 C          11.5660   37.4381   26.3393 C.2     1  UNL1        0.2708
     13 O          11.1688   36.3249   26.6114 O.2     1  UNL1       -0.2708
     14 C           9.7657   37.6178   24.7072 C.3     1  UNL1        0.1203
     15 C          10.7627   36.8394   22.6188 C.2     1  UNL1       -0.0031
     16 C           9.9793   37.7017   23.2179 C.2     1  UNL1       -0.0047
     17 C          11.4132   39.5131   25.0712 C.3     1  UNL1        0.1203
     18 C          10.2950   40.5057   25.2600 C.2     1  UNL1       -0.0047
     19 C          10.2303   41.5716   24.5011 C.2     1  UNL1       -0.0031
     20 S          16.0340   38.8529   30.0706 S.3     1  UNL1       -0.0487
     21 C          16.6335   39.1797   31.6950 C.ar    1  UNL1        0.1154
     22 C          18.0306   39.1991   31.9586 C.ar    1  UNL1        0.0440
     23 C          19.1421   38.9708   31.0211 C.ar    1  UNL1       -0.0162
     24 C          20.3850   39.0462   31.5237 C.ar    1  UNL1        0.0048
     25 S          20.1655   39.4163   33.2492 S.2     1  UNL1       -0.0726
     26 C          18.3947   39.4711   33.2900 C.ar    1  UNL1        0.1138
     27 N          17.4869   39.6914   34.2217 N.ar    1  UNL1       -0.2173
     28 C          16.2033   39.6601   33.9185 C.ar    1  UNL1        0.1998
     29 N          15.7900   39.4165   32.6878 N.ar    1  UNL1       -0.2173
     30 C          21.4379   38.8007   30.4762 C.3     1  UNL1        0.0330
     31 C          20.6976   38.9822   29.1328 C.3     1  UNL1        0.0099
     32 C          19.2460   38.6469   29.5279 C.3     1  UNL1        0.0270
@<TRIPOS>BOND
     1    15    16    2
     2    16    14    1
     3    14    11    1
     4    11    17    1
     5    11    12   am
     6    17    18    1
     7    18    19    2
     8    12    13    2
     9    12    10    1
    10    10     9    1
    11     9     7    1
    12     7     8    2
    13     7     1    1
    14     1     6   ar
    15     1     2   ar
    16     2     3   ar
    17     3     4   ar
    18     4     5   ar
    19     5     6   ar
    20     6    20    1
    21    20    21    1
    22    21    29   ar
    23    21    22   ar
    24    22    26   ar
    25    22    23   ar
    26    23    32    1
    27    23    24   ar
    28    24    25   ar
    29    24    30    1
    30    25    26   ar
    31    26    27   ar
    32    27    28   ar
    33    28    29   ar
    34    30    31    1
    35    31    32    1
@<TRIPOS>MOLECULE
ZINC30680337
 31 33 0 0 0
SMALL
GASTEIGER

@<TRIPOS>ATOM
      1 C          14.1482   37.1541   28.3692 C.2     1  UNL1        0.3417
      2 O          14.8643   36.1750   28.4335 O.2     1  UNL1       -0.2449
      3 C          12.0841   38.6514   31.1255 C.ar    1  UNL1        0.0016
      4 C          12.4288   37.9797   29.9707 C.ar    1  UNL1        0.0065
      5 C          13.7712   37.8757   29.6019 C.ar    1  UNL1        0.0770
      6 C          14.7557   38.4618   30.4003 C.ar    1  UNL1        0.0273
      7 C          14.3966   39.1345   31.5496 C.ar    1  UNL1        0.1340
      8 C          13.0645   39.2293   31.9122 C.ar    1  UNL1        0.0209
      9 S          15.6370   39.8753   32.5583 S.O2    1  UNL1        0.1142
     10 O          15.5633   41.2759   32.3297 O.2     1  UNL1       -0.1419
     11 O          15.5005   39.3066   33.8533 O.2     1  UNL1       -0.1419
     12 O          16.9858   39.4174   32.0219 O.3     1  UNL1       -0.2115
     13 C          18.1045   39.9281   32.7497 C.3     1  UNL1        0.2772
     14 C          19.2660   38.9360   32.6619 C.3     1  UNL1        0.4273
     15 F          19.4252   38.2943   33.8947 F       1  UNL1       -0.1673
     16 F          18.9930   37.9849   31.6729 F       1  UNL1       -0.1673
     17 F          20.4415   39.6217   32.3377 F       1  UNL1       -0.1673
     18 O          13.6978   37.5817   27.1738 O.3     1  UNL1       -0.4369
     19 C          12.3505   37.1911   26.7988 C.3     1  UNL1        0.2770
     20 C          11.7230   38.2829   25.9709 C.ar    1  UNL1        0.2250
     21 N          12.2042   38.7815   24.8216 N.ar    1  UNL1       -0.1875
     22 C          11.3403   39.7094   24.4490 C.ar    1  UNL1        0.2598
     23 O          10.3767   39.7345   25.3827 O.2     1  UNL1       -0.3326
     24 N          10.6146   38.9081   26.2380 N.ar    1  UNL1       -0.0563
     25 C          11.4198   40.5548   23.2397 C.ar    1  UNL1        0.0561
     26 C          10.9330   40.0809   22.0200 C.ar    1  UNL1        0.0056
     27 C          11.0042   40.8770   20.8962 C.ar    1  UNL1        0.0115
     28 C          11.5687   42.1394   20.9730 C.ar    1  UNL1        0.0577
     29 C          12.0585   42.6128   22.1788 C.ar    1  UNL1        0.0115
     30 C          11.9871   41.8284   23.3110 C.ar    1  UNL1        0.0056
     31 CL         11.6619   43.1327   19.5523 Cl      1  UNL1       -0.0822
@<TRIPOS>BOND
     1     3     8   ar
     2     3     4   ar
     3     4     5   ar
     4     5     6   ar
     5     5     1    1
     6     6     7   ar
     7     7     8   ar
     8     7     9    1
     9     9    10    2
    10     9    11    2
    11     9    12    1
    12    12    13    1
    13    13    14    1
    14    14    15    1
    15    14    16    1
    16    14    17    1
    17     1     2    2
    18     1    18    1
    19    18    19    1
    20    19    20    1
    21    20    24   ar
    22    20    21   ar
    23    21    22   ar
    24    22    23   ar
    25    22    25    1
    26    23    24   ar
    27    25    30   ar
    28    25    26   ar
    29    26    27   ar
    30    27    28   ar
    31    28    29   ar
    32    28    31    1
    33    29    30   ar
@<TRIPOS>MOLECULE
ZINC20078985
 35 38 0 0 0
SMALL
GASTEIGER

@<TRIPOS>ATOM
      1 C          24.5741   38.2374   29.7761 C.ar    1  UNL1        0.0383
      2 C          25.2649   37.1329   30.2395 C.ar    1  UNL1        0.0969
      3 N          26.5772   37.3856   30.1117 N.ar    1  UNL1       -0.2449
      4 N          26.7611   38.6579   29.5636 N.ar    1  UNL1       -0.1689
      5 C          25.5876   39.2045   29.3396 C.ar    1  UNL1        0.1023
      6 C          25.3354   40.5455   28.7600 C.ar    1  UNL1        0.0194
      7 C          24.5758   40.6740   27.5982 C.ar    1  UNL1        0.0016
      8 C          24.3390   41.9254   27.0667 C.ar    1  UNL1        0.0000
      9 C          24.8643   43.0499   27.6776 C.ar    1  UNL1        0.0000
     10 C          25.6236   42.9280   28.8275 C.ar    1  UNL1        0.0000
     11 C          25.8618   41.6823   29.3715 C.ar    1  UNL1        0.0016
     12 C          22.3465   37.4584   29.1447 C.2     1  UNL1        0.0820
     13 C          23.1174   38.4062   29.7251 C.2     1  UNL1        0.0097
     14 C          20.9415   37.6213   29.0956 C.2     1  UNL1        0.3417
     15 O          20.2522   36.7918   28.5322 O.2     1  UNL1       -0.2449
     16 O          20.3666   38.6994   29.6689 O.3     1  UNL1       -0.4404
     17 C          19.6675   38.4858   30.8968 C.3     1  UNL1        0.2379
     18 C          18.1884   38.6642   30.6703 C.2     1  UNL1        0.0571
     19 O          17.7548   38.7422   29.5458 O.2     1  UNL1       -0.3286
     20 C          17.2503   38.7455   31.8468 C.2     1  UNL1       -0.0999
     21 C          20.5959   40.2344   35.2552 C.3     1  UNL1        0.0525
     22 C          19.3205   40.4112   34.4721 C.ar    1  UNL1        0.0629
     23 C          18.5310   41.4984   34.6653 C.ar    1  UNL1        0.0485
     24 S          17.2185   41.1622   33.5001 S.2     1  UNL1       -0.1048
     25 C          17.8363   39.6563   32.8947 C.ar    1  UNL1       -0.0497
     26 N          18.9420   39.5121   33.5880 N.ar    1  UNL1       -0.2804
     27 C          15.9521   39.2793   31.4033 C.1     1  UNL1       -0.1066
     28 N          14.9503   39.6911   31.0610 N.1     1  UNL1       -0.2342
     29 C          27.6537   36.4668   30.4903 C.3     1  UNL1        0.1538
     30 C          27.4069   35.9511   31.8846 C.ar    1  UNL1        0.0021
     31 C          27.5025   36.8078   32.9653 C.ar    1  UNL1       -0.0023
     32 C          27.2713   36.3358   34.2439 C.ar    1  UNL1       -0.0003
     33 C          26.9550   35.0049   34.4427 C.ar    1  UNL1       -0.0000
     34 C          26.8645   34.1472   33.3625 C.ar    1  UNL1       -0.0003
     35 C          27.0905   34.6202   32.0834 C.ar    1  UNL1       -0.0023
@<TRIPOS>UNITY_ATOM_ATTR
20 1
charge -1
@<TRIPOS>BOND
     1    21    22    1
     2    22    26   ar
     3    22    23   ar
     4    23    24   ar
     5    24    25   ar
     6    25    26   ar
     7    25    20    1
     8    20    27    1
     9    20    18    1
    10    27    28    3
    11    18    19    2
    12    18    17    1
    13    17    16    1
    14    16    14    1
    15    14    15    2
    16    14    12    1
    17    12    13    2
    18    13     1    1
    19     1     5   ar
    20     1     2   ar
    21     2     3   ar
    22     3     4   ar
    23     3    29    1
    24     4     5   ar
    25     5     6    1
    26     6    11   ar
    27     6     7   ar
    28     7     8   ar
    29     8     9   ar
    30     9    10   ar
    31    10    11   ar
    32    29    30    1
    33    30    35   ar
    34    30    31   ar
    35    31    32   ar
    36    32    33   ar
    37    33    34   ar
    38    34    35   ar
@<TRIPOS>MOLECULE
ZINC09718774
 33 36 0 0 0
SMALL
GASTEIGER

@<TRIPOS>ATOM
      1 N          20.7509   38.9107   28.2672 N.am    1  UNL1       -0.2313
      2 C          20.9613   37.7868   27.5538 C.2     1  UNL1        0.2757
      3 O          20.5292   36.7258   27.9520 O.2     1  UNL1       -0.2704
      4 C          20.0391   38.8538   29.4592 C.ar    1  UNL1        0.1692
      5 N          18.7342   38.8864   29.6550 N.ar    1  UNL1       -0.2237
      6 C          18.2197   38.8207   30.8739 C.ar    1  UNL1        0.0897
      7 C          19.0562   38.7172   31.9503 C.ar    1  UNL1        0.0572
      8 S          20.6470   38.7094   31.1338 S.2     1  UNL1       -0.0506
      9 C          16.7499   38.8596   31.0691 C.ar    1  UNL1        0.0182
     10 C          16.2180   39.2125   32.3081 C.ar    1  UNL1        0.0015
     11 C          14.8495   39.2521   32.4825 C.ar    1  UNL1        0.0000
     12 C          14.0064   38.9312   31.4338 C.ar    1  UNL1        0.0000
     13 C          14.5289   38.5751   30.2034 C.ar    1  UNL1        0.0000
     14 C          15.8956   38.5376   30.0159 C.ar    1  UNL1        0.0015
     15 C          21.2728   40.1922   27.7862 C.3     1  UNL1        0.1265
     16 C          23.2837   41.5316   28.1387 C.2     1  UNL1       -0.0031
     17 C          22.5321   40.5362   28.5392 C.2     1  UNL1       -0.0043
     18 C          21.7333   37.8485   26.2610 C.3     1  UNL1        0.2933
     19 O          22.9421   37.0977   26.3919 O.3     1  UNL1       -0.4353
     20 C          24.0760   37.7958   26.6188 C.2     1  UNL1        0.3419
     21 O          24.2799   38.8372   26.0212 O.2     1  UNL1       -0.2449
     22 C          25.0215   37.3197   27.5455 C.2     1  UNL1        0.0835
     23 C          25.3001   38.0424   28.6671 C.2     1  UNL1        0.0266
     24 C          26.2461   37.5662   29.5945 C.ar    1  UNL1        0.0940
     25 C          27.6314   37.5863   29.4586 C.ar    1  UNL1        0.1559
     26 N          28.1597   37.0523   30.5479 N.ar    1  UNL1       -0.2151
     27 C          27.1923   36.6847   31.3877 C.ar    1  UNL1        0.1488
     28 N          25.9843   36.9902   30.8257 N.ar    1  UNL1       -0.2880
     29 C          24.8248   36.7167   31.4818 C.ar    1  UNL1        0.0815
     30 C          24.8447   36.1369   32.7038 C.ar    1  UNL1        0.0191
     31 C          26.0667   35.8109   33.3079 C.ar    1  UNL1        0.0046
     32 C          27.2337   36.0816   32.6570 C.ar    1  UNL1        0.0375
     33 CL         28.5126   38.2050   28.0968 Cl      1  UNL1       -0.0597
@<TRIPOS>BOND
     1    16    17    2
     2    17    15    1
     3    15     1    1
     4     1     4    1
     5     1     2   am
     6     4     8   ar
     7     4     5   ar
     8     5     6   ar
     9     6     7   ar
    10     6     9    1
    11     7     8   ar
    12     9    14   ar
    13     9    10   ar
    14    10    11   ar
    15    11    12   ar
    16    12    13   ar
    17    13    14   ar
    18     2     3    2
    19     2    18    1
    20    18    19    1
    21    19    20    1
    22    20    21    2
    23    20    22    1
    24    22    23    2
    25    23    24    1
    26    24    28   ar
    27    24    25   ar
    28    25    26   ar
    29    25    33    1
    30    26    27   ar
    31    27    32   ar
    32    27    28   ar
    33    28    29   ar
    34    29    30   ar
    35    30    31   ar
    36    31    32   ar
@<TRIPOS>MOLECULE
ZINC04896773
 34 37 0 0 0
SMALL
GASTEIGER

@<TRIPOS>ATOM
      1 C          11.4922   38.6180   26.1666 C.3     1  UNL1        0.1723
      2 C          10.9606   39.3392   27.4067 C.3     1  UNL1        0.0437
      3 C          10.6574   38.3147   28.5021 C.3     1  UNL1        0.0037
      4 C          11.9397   37.5605   28.8612 C.3     1  UNL1        0.0006
      5 C          12.4669   36.8355   27.6211 C.3     1  UNL1        0.0036
      6 C          12.7714   37.8592   26.5253 C.3     1  UNL1        0.0437
      7 C          13.7463   36.0778   27.9815 C.3     1  UNL1        0.0001
      8 C          14.8002   37.0669   28.4817 C.3     1  UNL1        0.0000
      9 C          14.2755   37.7940   29.7216 C.3     1  UNL1        0.0008
     10 C          12.9922   38.5556   29.3555 C.3     1  UNL1        0.0073
     11 C          12.4330   39.3405   30.5402 C.3     1  UNL1        0.0645
     12 C          13.5304   40.1479   31.2191 C.2     1  UNL1        0.1498
     13 O          13.4084   41.3224   31.4719 O.2     1  UNL1       -0.2961
     14 C          14.7752   39.3810   31.5450 C.3     1  UNL1        0.0515
     15 C          15.2910   38.8088   30.1999 C.3     1  UNL1        0.0065
     16 C          16.6766   38.2897   30.5853 C.3     1  UNL1        0.0004
     17 C          17.2147   39.4262   31.4985 C.3     1  UNL1        0.0004
     18 C          15.9730   40.1676   32.0587 C.3     1  UNL1        0.0065
     19 C          14.4442   38.2345   32.5025 C.3     1  UNL1        0.0073
     20 C          11.6418   36.5422   29.9636 C.3     1  UNL1        0.0000
     21 C          15.9962   40.1610   33.5885 C.3     1  UNL1        0.0010
     22 C          15.6912   41.5670   34.1092 C.3     1  UNL1        0.0000
     23 C          17.3795   39.7257   34.0758 C.3     1  UNL1        0.0117
     24 C          18.2054   40.9620   34.4370 C.3     1  UNL1        0.1096
     25 C          19.5810   40.5351   34.8804 C.2     1  UNL1        0.3171
     26 O          20.2267   41.2452   35.6144 O.2     1  UNL1       -0.2501
     27 O          20.0890   39.3659   34.4598 O.3     1  UNL1       -0.4444
     28 C          20.8597   39.3866   33.2294 C.3     1  UNL1        0.2556
     29 O          10.4924   37.6810   25.6862 O.3     1  UNL1       -0.4219
     30 C          10.3713   37.5473   24.3531 C.2     1  UNL1        0.5117
     31 O          10.8451   36.5787   23.7945 O.2     1  UNL1       -0.2028
     32 O           9.7254   38.4866   23.6387 O.3     1  UNL1       -0.4181
     33 C          10.7010   40.6654   23.1576 C.3     1  UNL1        0.0514
     34 C          10.5076   39.2293   22.6666 C.3     1  UNL1        0.2122
@<TRIPOS>BOND
     1    33    34    1
     2    34    32    1
     3    32    30    1
     4    30    31    2
     5    30    29    1
     6    29     1    1
     7     1     6    1
     8     1     2    1
     9     2     3    1
    10     3     4    1
    11     4    10    1
    12     4     5    1
    13     4    20    1
    14     5     6    1
    15     5     7    1
    16     7     8    1
    17     8     9    1
    18     9    15    1
    19     9    10    1
    20    10    11    1
    21    11    12    1
    22    12    13    2
    23    12    14    1
    24    14    18    1
    25    14    15    1
    26    14    19    1
    27    15    16    1
    28    16    17    1
    29    17    18    1
    30    18    21    1
    31    21    22    1
    32    21    23    1
    33    23    24    1
    34    24    25    1
    35    25    26    2
    36    25    27    1
    37    27    28    1
@<TRIPOS>MOLECULE
ZINC28616738
 34 38 0 0 0
SMALL
GASTEIGER

@<TRIPOS>ATOM
      1 C          23.6484   39.7844   27.9157 C.ar    1  UNL1        0.2284
      2 C          23.4933   41.1914   28.0026 C.ar    1  UNL1        0.0780
      3 C          24.4117   42.2558   27.6083 C.ar    1  UNL1        0.0190
      4 C          24.0332   43.5438   27.7934 C.ar    1  UNL1        0.0376
      5 S          22.4089   43.4012   28.5136 S.2     1  UNL1       -0.0673
      6 C          22.2715   41.6340   28.5516 C.ar    1  UNL1        0.1168
      7 N          21.3488   40.7806   28.9506 N.ar    1  UNL1       -0.2186
      8 C          21.5513   39.4819   28.8436 C.ar    1  UNL1        0.1983
      9 N          22.6748   38.9996   28.3433 N.ar    1  UNL1       -0.1907
     10 C          25.7285   41.9348   27.0191 C.ar    1  UNL1        0.0302
     11 C          26.0764   41.8094   25.7005 C.ar    1  UNL1        0.0070
     12 C          27.3835   41.5004   25.3873 C.ar    1  UNL1        0.0075
     13 C          28.2813   41.3306   26.3901 C.ar    1  UNL1        0.0354
     14 S          27.2814   41.6175   27.8408 S.2     1  UNL1       -0.0864
     15 O          24.7835   39.2510   27.4041 O.3     1  UNL1       -0.4517
     16 C          25.0305   37.8697   27.6749 C.3     1  UNL1        0.2735
     17 N          25.9554   37.3733   29.9993 N.ar    1  UNL1       -0.2138
     18 C          26.1131   37.7477   28.7161 C.ar    1  UNL1        0.2053
     19 N          27.3918   37.9801   28.5465 N.ar    1  UNL1       -0.1088
     20 N          27.9873   37.7674   29.6691 N.ar    1  UNL1       -0.0229
     21 N          27.1226   37.3977   30.5484 N.ar    1  UNL1       -0.0431
     22 C          24.6951   37.0065   30.6501 C.3     1  UNL1        0.1307
     23 C          24.8936   35.7233   31.4594 C.3     1  UNL1        0.0265
     24 C          25.9651   35.1886   33.6522 C.3     1  UNL1        0.0001
     25 C          24.9213   36.0606   32.9515 C.3     1  UNL1        0.0021
     26 C          20.4809   38.5279   29.3075 C.3     1  UNL1        0.1721
     27 N          19.7710   39.1086   30.4550 N.4     1  UNL1        0.2817
     28 C          18.4803   38.4416   30.6677 C.3     1  UNL1        0.1058
     29 C          17.7074   39.1639   31.7736 C.3     1  UNL1        0.0611
     30 C          18.5324   39.1434   33.0633 C.3     1  UNL1        0.0118
     31 C          19.8903   39.8007   32.8017 C.3     1  UNL1        0.0611
     32 C          20.6000   39.0598   31.6661 C.3     1  UNL1        0.1058
     33 C          17.7920   39.9168   34.1563 C.3     1  UNL1        0.0004
     34 H          19.5835   40.0892   30.2456 H       1  UNL1        0.2072
@<TRIPOS>UNITY_ATOM_ATTR
27 1
charge 1
@<TRIPOS>BOND
     1    24    25    1
     2    25    23    1
     3    23    22    1
     4    22    17    1
     5    17    21   ar
     6    17    18   ar
     7    18    19   ar
     8    18    16    1
     9    19    20   ar
    10    20    21   ar
    11    16    15    1
    12    15     1    1
    13     1     9   ar
    14     1     2   ar
    15     2     6   ar
    16     2     3   ar
    17     3     4   ar
    18     3    10    1
    19     4     5   ar
    20     5     6   ar
    21     6     7   ar
    22     7     8   ar
    23     8     9   ar
    24     8    26    1
    25    26    27    1
    26    27    32    1
    27    27    28    1
    28    28    29    1
    29    29    30    1
    30    30    31    1
    31    30    33    1
    32    31    32    1
    33    10    14   ar
    34    10    11   ar
    35    11    12   ar
    36    12    13   ar
    37    13    14   ar
    38    27    34    1
@<TRIPOS>MOLECULE
ZINC09257169
 37 41 0 0 0
SMALL
GASTEIGER

@<TRIPOS>ATOM
      1 N          25.5135   37.7690   29.8218 N.am    1  UNL1       -0.1982
      2 C          24.7488   36.9448   30.5651 C.2     1  UNL1        0.2154
      3 O          23.5414   36.8404   30.5349 O.2     1  UNL1       -0.2761
      4 C          25.7127   36.1748   31.4458 C.3     1  UNL1       -0.0053
      5 N          27.0323   36.7042   31.0604 N.am    1  UNL1       -0.6118
      6 C          26.8128   37.6282   30.1076 C.2     1  UNL1        0.1418
      7 O          27.6964   38.2640   29.5669 O.2     1  UNL1       -0.2966
      8 C          24.9867   38.7042   28.8248 C.3     1  UNL1        0.2165
      9 C          24.9632   37.5960   26.6721 C.3     1  UNL1        0.1695
     10 N          24.1588   37.9494   27.8607 N.4     1  UNL1        0.3002
     11 H          23.8309   37.0921   28.3056 H       1  UNL1        0.2093
     12 C          22.9895   38.7585   27.4569 C.3     1  UNL1        0.1381
     13 C          21.8244   38.4060   28.3452 C.ar    1  UNL1        0.0727
     14 C          21.0188   37.2674   28.2331 C.ar    1  UNL1        0.1235
     15 N          20.1155   37.3099   29.1791 N.ar    1  UNL1       -0.1636
     16 N          20.3170   38.4784   29.9250 N.ar    1  UNL1       -0.2283
     17 C          21.3759   39.1318   29.3955 C.ar    1  UNL1        0.1034
     18 C          19.5588   38.8939   31.0284 C.ar    1  UNL1        0.0828
     19 C          18.1797   38.7330   31.0252 C.ar    1  UNL1        0.0191
     20 C          17.4358   39.1394   32.1156 C.ar    1  UNL1        0.0015
     21 C          18.0621   39.7153   33.2057 C.ar    1  UNL1        0.0001
     22 C          19.4349   39.8814   33.2099 C.ar    1  UNL1        0.0015
     23 C          20.1846   39.4725   32.1243 C.ar    1  UNL1        0.0191
     24 C          25.6280   34.6752   31.1538 C.3     1  UNL1        0.0152
     25 C          26.8651   34.2371   30.4131 C.ar    1  UNL1       -0.0233
     26 C          26.8742   34.2218   29.0309 C.ar    1  UNL1       -0.0043
     27 C          28.0106   33.8245   28.3515 C.ar    1  UNL1       -0.0003
     28 C          29.1344   33.4324   29.0543 C.ar    1  UNL1       -0.0000
     29 C          29.1237   33.4428   30.4366 C.ar    1  UNL1       -0.0003
     30 C          27.9891   33.8451   31.1160 C.ar    1  UNL1       -0.0043
     31 C          25.4315   36.4535   32.9237 C.3     1  UNL1        0.0152
     32 C          26.6094   36.0084   33.7518 C.ar    1  UNL1       -0.0233
     33 C          27.6674   36.8712   33.9686 C.ar    1  UNL1       -0.0043
     34 C          28.7456   36.4645   34.7321 C.ar    1  UNL1       -0.0003
     35 C          28.7705   35.1914   35.2703 C.ar    1  UNL1       -0.0000
     36 C          27.7147   34.3268   35.0492 C.ar    1  UNL1       -0.0003
     37 C          26.6342   34.7353   34.2900 C.ar    1  UNL1       -0.0043
@<TRIPOS>UNITY_ATOM_ATTR
5 1
charge -1
10 1
charge 1
@<TRIPOS>BOND
     1     9    10    1
     2    12    13    1
     3    12    10    1
     4    13    17   ar
     5    13    14   ar
     6    14    15   ar
     7    15    16   ar
     8    16    17   ar
     9    16    18    1
    10    18    23   ar
    11    18    19   ar
    12    19    20   ar
    13    20    21   ar
    14    21    22   ar
    15    22    23   ar
    16     8     1    1
    17     8    10    1
    18     1     6   am
    19     1     2   am
    20     2     3    2
    21     2     4    1
    22     4     5    1
    23     4    24    1
    24     4    31    1
    25     5     6    1
    26     6     7    2
    27    24    25    1
    28    25    30   ar
    29    25    26   ar
    30    26    27   ar
    31    27    28   ar
    32    28    29   ar
    33    29    30   ar
    34    31    32    1
    35    32    37   ar
    36    32    33   ar
    37    33    34   ar
    38    34    35   ar
    39    35    36   ar
    40    36    37   ar
    41    10    11    1
@<TRIPOS>MOLECULE
ZINC16846137
 31 34 0 0 0
SMALL
GASTEIGER

@<TRIPOS>ATOM
      1 C          23.4599   38.3782   27.4112 C.ar    1  UNL1        0.1990
      2 N          22.7425   38.3029   26.3142 N.ar    1  UNL1       -0.1217
      3 N          23.1996   39.1141   25.4245 N.ar    1  UNL1       -0.1278
      4 C          24.2373   39.7549   25.9035 C.ar    1  UNL1        0.1738
      5 N          24.4400   39.3073   27.1905 N.ar    1  UNL1       -0.2482
      6 C          25.4672   39.8073   27.9461 C.ar    1  UNL1        0.1782
      7 N          26.2817   40.7198   27.4694 N.ar    1  UNL1       -0.2155
      8 C          26.1592   41.2078   26.2372 C.ar    1  UNL1        0.1152
      9 C          25.1510   40.7829   25.3591 C.ar    1  UNL1        0.0565
     10 C          25.1466   41.4090   24.0427 C.ar    1  UNL1       -0.0105
     11 C          26.1057   42.3316   23.7958 C.ar    1  UNL1        0.0345
     12 S          27.0580   42.4083   25.2854 S.2     1  UNL1       -0.0701
     13 C          26.2913   43.0975   22.5228 C.3     1  UNL1        0.1745
     14 O          25.1060   42.9276   21.7291 O.3     1  UNL1       -0.3529
     15 C          24.6847   41.5658   21.6166 C.3     1  UNL1        0.0973
     16 C          24.1283   41.0729   22.9558 C.3     1  UNL1        0.0540
     17 C          25.8802   40.6996   21.2146 C.3     1  UNL1        0.0300
     18 C          23.5976   41.4581   20.5454 C.3     1  UNL1        0.0276
     19 C          22.2261   41.6800   21.1866 C.3     1  UNL1        0.0025
     20 S          25.7002   39.2141   29.5888 S.3     1  UNL1       -0.0760
     21 C          26.9373   37.9280   29.2861 C.3     1  UNL1        0.0772
     22 S          23.2081   37.4551   28.8907 S.3     1  UNL1       -0.0633
     23 C          21.8744   38.3435   29.7408 C.3     1  UNL1        0.1743
     24 C          20.5603   37.6586   29.4671 C.2     1  UNL1        0.3286
     25 O          20.4580   36.8988   28.5332 O.2     1  UNL1       -0.2491
     26 O          19.5034   37.8926   30.2607 O.3     1  UNL1       -0.4479
     27 C          19.6041   39.0124   31.1795 C.3     1  UNL1        0.2085
     28 C          18.4863   38.9204   32.2202 C.3     1  UNL1        0.0474
     29 C          18.7383   39.9419   33.3310 C.3     1  UNL1        0.0038
     30 C          20.4791   40.1031   35.1159 C.3     1  UNL1        0.0000
     31 C          20.2404   40.0360   33.6062 C.3     1  UNL1        0.0001
@<TRIPOS>BOND
     1    30    31    1
     2    31    29    1
     3    29    28    1
     4    28    27    1
     5    27    26    1
     6    26    24    1
     7    24    25    2
     8    24    23    1
     9    23    22    1
    10    22     1    1
    11     1     5   ar
    12     1     2   ar
    13     2     3   ar
    14     3     4   ar
    15     4     9   ar
    16     4     5   ar
    17     5     6   ar
    18     6     7   ar
    19     6    20    1
    20     7     8   ar
    21     8    12   ar
    22     8     9   ar
    23     9    10   ar
    24    10    16    1
    25    10    11   ar
    26    11    12   ar
    27    11    13    1
    28    13    14    1
    29    14    15    1
    30    15    16    1
    31    15    17    1
    32    15    18    1
    33    18    19    1
    34    20    21    1
@<TRIPOS>MOLECULE
ZINC11926867
 32 35 0 0 0
SMALL
GASTEIGER

@<TRIPOS>ATOM
      1 S          21.2343   38.1483   28.1331 S.O2    1  UNL1       -0.0548
      2 O          20.9805   39.5455   28.1872 O.2     1  UNL1       -0.1841
      3 O          21.0071   37.3776   26.9611 O.2     1  UNL1       -0.1841
      4 C          22.9295   37.9276   28.5601 C.ar    1  UNL1        0.1277
      5 C          23.3968   37.3344   29.6797 C.ar    1  UNL1        0.1134
      6 N          24.7464   37.3576   29.6326 N.ar    1  UNL1       -0.2501
      7 N          25.1314   37.9926   28.4450 N.ar    1  UNL1       -0.1675
      8 C          24.0394   38.3419   27.7953 C.ar    1  UNL1        0.1240
      9 C          23.9872   39.0391   26.4918 C.ar    1  UNL1        0.0501
     10 C          23.5764   38.5643   25.2757 C.ar    1  UNL1        0.0086
     11 C          23.6125   39.4097   24.1877 C.ar    1  UNL1        0.0075
     12 C          24.0636   40.6793   24.3517 C.ar    1  UNL1        0.0355
     13 S          24.4509   40.7167   26.0940 S.2     1  UNL1       -0.0848
     14 C          25.6511   36.8124   30.6478 C.3     1  UNL1        0.1053
     15 C          26.1773   35.4329   30.2007 C.3     1  UNL1        0.0244
     16 C          26.2426   34.6090   31.5115 C.3     1  UNL1        0.0021
     17 C          24.9792   35.0787   32.2746 C.3     1  UNL1        0.0021
     18 C          24.8900   36.5876   31.9660 C.3     1  UNL1        0.0244
     19 N          20.3320   37.4564   29.3369 N.pl3   1  UNL1       -0.5357
     20 C          19.0939   39.7425   32.5802 C.ar    1  UNL1        0.0755
     21 C          20.4548   39.6375   32.2756 C.ar    1  UNL1        0.0046
     22 C          20.8598   38.8825   31.2051 C.ar    1  UNL1       -0.0236
     23 C          19.9179   38.2207   30.4218 C.ar    1  UNL1       -0.1123
     24 C          18.5619   38.3274   30.7192 C.ar    1  UNL1       -0.0236
     25 C          18.1505   39.0765   31.7914 C.ar    1  UNL1        0.0046
     26 C          18.6549   40.5528   33.7304 C.2     1  UNL1        0.3412
     27 O          19.1201   40.3442   34.8334 O.2     1  UNL1       -0.2449
     28 O          17.7376   41.5250   33.5589 O.3     1  UNL1       -0.4454
     29 C          16.3969   41.2603   34.0493 C.3     1  UNL1        0.2088
     30 C          15.4428   41.0993   32.8640 C.3     1  UNL1        0.0475
     31 C          14.4345   39.2709   31.4919 C.3     1  UNL1        0.0001
     32 C          14.8015   39.7109   32.9106 C.3     1  UNL1        0.0038
@<TRIPOS>UNITY_ATOM_ATTR
19 1
charge -1
@<TRIPOS>BOND
     1    31    32    1
     2    32    30    1
     3    30    29    1
     4    29    28    1
     5    28    26    1
     6    26    27    2
     7    26    20    1
     8    20    25   ar
     9    20    21   ar
    10    21    22   ar
    11    22    23   ar
    12    23    24   ar
    13    23    19    1
    14    24    25   ar
    15    19     1    1
    16     1     2    2
    17     1     3    2
    18     1     4    1
    19     4     8   ar
    20     4     5   ar
    21     5     6   ar
    22     6     7   ar
    23     6    14    1
    24     7     8   ar
    25     8     9    1
    26     9    13   ar
    27     9    10   ar
    28    10    11   ar
    29    11    12   ar
    30    12    13   ar
    31    14    18    1
    32    14    15    1
    33    15    16    1
    34    16    17    1
    35    17    18    1
@<TRIPOS>MOLECULE
ZINC23448870
 32 34 0 0 0
SMALL
GASTEIGER

@<TRIPOS>ATOM
      1 C          25.5832   42.8078   27.5826 C.ar    1  UNL1        0.1238
      2 C          26.2362   41.6137   27.3154 C.ar    1  UNL1        0.0215
      3 C          25.5618   40.4133   27.4048 C.ar    1  UNL1        0.0201
      4 C          24.2226   40.3989   27.7639 C.ar    1  UNL1        0.0792
      5 C          23.5555   41.6055   28.0323 C.ar    1  UNL1        0.1005
      6 C          24.2514   42.8130   27.9325 C.ar    1  UNL1        0.0405
      7 N          22.2751   41.2907   28.3603 N.ar    1  UNL1       -0.2211
      8 C          22.1138   39.9913   28.3063 C.ar    1  UNL1        0.1715
      9 N          23.2861   39.3932   27.9388 N.ar    1  UNL1       -0.3084
     10 S          26.4615   44.3306   27.4624 S.O2    1  UNL1        0.0633
     11 O          25.5129   45.3177   27.0814 O.2     1  UNL1       -0.1528
     12 O          27.2445   44.4421   28.6430 O.2     1  UNL1       -0.1528
     13 N          27.5249   44.1843   26.2013 N.3     1  UNL1       -0.1555
     14 C          29.8613   44.8580   25.9394 C.3     1  UNL1        0.0206
     15 C          28.9092   43.7766   26.4541 C.3     1  UNL1        0.0958
     16 C          27.0814   44.4627   24.8331 C.3     1  UNL1        0.0958
     17 C          27.0400   43.1580   24.0350 C.3     1  UNL1        0.0206
     18 C          23.5121   37.9559   27.7679 C.3     1  UNL1        0.0875
     19 C          24.5948   37.4903   28.7434 C.3     1  UNL1        0.0245
     20 C          23.9645   37.6779   26.3331 C.3     1  UNL1        0.0245
     21 S          20.6095   39.1423   28.6544 S.3     1  UNL1       -0.0725
     22 C          20.8042   38.8748   30.4339 C.3     1  UNL1        0.0913
     23 C          19.4659   39.0149   31.1122 C.ar    1  UNL1       -0.0107
     24 C          19.4032   39.3584   32.4513 C.ar    1  UNL1       -0.0034
     25 C          18.1787   39.4892   33.0819 C.ar    1  UNL1       -0.0001
     26 C          17.0109   39.2776   32.3785 C.ar    1  UNL1        0.0064
     27 C          17.0668   38.9308   31.0273 C.ar    1  UNL1        0.0754
     28 C          18.3060   38.8060   30.3957 C.ar    1  UNL1        0.0030
     29 C          15.8205   38.7031   30.2676 C.2     1  UNL1        0.3413
     30 O          15.7892   37.8647   29.3891 O.2     1  UNL1       -0.2449
     31 O          14.7186   39.4252   30.5490 O.3     1  UNL1       -0.4413
     32 C          13.5430   38.6919   30.9832 C.3     1  UNL1        0.2560
@<TRIPOS>BOND
     1    14    15    1
     2    15    13    1
     3    13    16    1
     4    13    10    1
     5    16    17    1
     6    10    11    2
     7    10    12    2
     8    10     1    1
     9     1     6   ar
    10     1     2   ar
    11     2     3   ar
    12     3     4   ar
    13     4     9   ar
    14     4     5   ar
    15     5     6   ar
    16     5     7   ar
    17     7     8   ar
    18     8     9   ar
    19     8    21    1
    20     9    18    1
    21    18    19    1
    22    18    20    1
    23    21    22    1
    24    22    23    1
    25    23    28   ar
    26    23    24   ar
    27    24    25   ar
    28    25    26   ar
    29    26    27   ar
    30    27    28   ar
    31    27    29    1
    32    29    30    2
    33    29    31    1
    34    31    32    1
@<TRIPOS>MOLECULE
ZINC30560908
 33 36 0 0 0
SMALL
GASTEIGER

@<TRIPOS>ATOM
      1 C          26.2476   37.2636   29.7144 C.ar    1  UNL1        0.0824
      2 C          26.0543   36.7048   28.4558 C.ar    1  UNL1        0.0192
      3 C          25.2166   37.3168   27.5500 C.ar    1  UNL1        0.0028
      4 C          24.5608   38.5008   27.8969 C.ar    1  UNL1        0.0157
      5 C          24.7622   39.0628   29.1602 C.ar    1  UNL1        0.0028
      6 C          25.5969   38.4422   30.0629 C.ar    1  UNL1        0.0192
      7 C          27.8715   35.3469   32.2316 C.ar    1  UNL1        0.1100
      8 C          28.9377   36.1264   31.7262 C.ar    1  UNL1        0.1281
      9 N          28.4686   36.8851   30.7745 N.ar    1  UNL1       -0.1636
     10 N          27.0985   36.6393   30.6316 N.ar    1  UNL1       -0.2334
     11 C          26.7394   35.6964   31.5221 C.ar    1  UNL1        0.0686
     12 C          25.3569   35.1265   31.7099 C.3     1  UNL1        0.0524
     13 C          27.9531   34.3494   33.3120 C.2     1  UNL1        0.3440
     14 O          28.4349   34.6542   34.3853 O.2     1  UNL1       -0.2448
     15 O          27.4936   33.0988   33.1105 O.3     1  UNL1       -0.4454
     16 C          27.1932   31.9256   30.9977 C.3     1  UNL1        0.0513
     17 C          28.1761   32.2991   32.1090 C.3     1  UNL1        0.2089
     18 C          23.6621   39.1597   26.9286 C.2     1  UNL1        0.0826
     19 O          24.0043   40.1933   26.3872 O.2     1  UNL1       -0.3129
     20 N          22.4621   38.6155   26.6446 N.am    1  UNL1       -0.5887
     21 C          21.4921   38.5129   27.6373 C.ar    1  UNL1        0.0183
     22 N          20.8440   37.4504   28.0863 N.ar    1  UNL1       -0.1652
     23 N          19.9828   37.5313   29.0042 N.ar    1  UNL1       -0.1363
     24 C          19.6742   38.6864   29.5755 C.ar    1  UNL1        0.1580
     25 S          20.7595   39.7822   28.6660 S.2     1  UNL1       -0.0641
     26 S          18.5202   39.0431   30.8583 S.3     1  UNL1       -0.0819
     27 C          19.2891   38.3469   32.3465 C.3     1  UNL1        0.0904
     28 C          19.3546   39.4034   33.4192 C.ar    1  UNL1       -0.0109
     29 C          20.4519   39.4704   34.2573 C.ar    1  UNL1       -0.0034
     30 C          20.5117   40.4392   35.2414 C.ar    1  UNL1       -0.0003
     31 C          19.4743   41.3411   35.3875 C.ar    1  UNL1       -0.0000
     32 C          18.3774   41.2745   34.5490 C.ar    1  UNL1       -0.0003
     33 C          18.3172   40.3053   33.5651 C.ar    1  UNL1       -0.0034
@<TRIPOS>UNITY_ATOM_ATTR
20 1
charge -1
@<TRIPOS>BOND
     1    16    17    1
     2    17    15    1
     3    15    13    1
     4    13    14    2
     5    13     7    1
     6     7    11   ar
     7     7     8   ar
     8     8     9   ar
     9     9    10   ar
    10    10    11   ar
    11    10     1    1
    12    11    12    1
    13     1     6   ar
    14     1     2   ar
    15     2     3   ar
    16     3     4   ar
    17     4     5   ar
    18     4    18    1
    19     5     6   ar
    20    18    19    2
    21    18    20    1
    22    20    21    1
    23    21    25   ar
    24    21    22   ar
    25    22    23   ar
    26    23    24   ar
    27    24    25   ar
    28    24    26    1
    29    26    27    1
    30    27    28    1
    31    28    33   ar
    32    28    29   ar
    33    29    30   ar
    34    30    31   ar
    35    31    32   ar
    36    32    33   ar
@<TRIPOS>MOLECULE
ZINC26008223
 34 37 0 0 0
SMALL
GASTEIGER

@<TRIPOS>ATOM
      1 C          20.1053   39.3214   29.9382 C.3     1  UNL1        0.1222
      2 N          21.0630   39.0370   28.8666 N.ar    1  UNL1       -0.2776
      3 C          20.9647   37.8707   28.1785 C.ar    1  UNL1        0.1813
      4 N          21.8031   37.5794   27.2204 N.ar    1  UNL1       -0.2186
      5 C          22.7815   38.4173   26.8874 C.ar    1  UNL1        0.1170
      6 C          22.9615   39.6462   27.5428 C.ar    1  UNL1        0.0805
      7 C          22.0263   39.9346   28.5873 C.ar    1  UNL1        0.2639
      8 O          22.1012   40.9771   29.2147 O.2     1  UNL1       -0.2669
      9 C          24.0791   40.4473   27.0579 C.ar    1  UNL1        0.0131
     10 C          24.8365   39.9629   26.0441 C.ar    1  UNL1        0.0371
     11 S          24.0828   38.3887   25.6818 S.2     1  UNL1       -0.0673
     12 C          24.3813   41.7664   27.6627 C.ar    1  UNL1        0.0007
     13 C          23.7752   42.9194   27.1657 C.ar    1  UNL1       -0.0003
     14 C          24.0560   44.1441   27.7366 C.ar    1  UNL1       -0.0043
     15 C          24.9456   44.2303   28.7925 C.ar    1  UNL1       -0.0218
     16 C          25.5544   43.0903   29.2861 C.ar    1  UNL1       -0.0043
     17 C          25.2770   41.8596   28.7270 C.ar    1  UNL1       -0.0003
     18 C          25.2531   45.5715   29.4071 C.3     1  UNL1        0.0310
     19 C          19.3017   38.0579   30.2525 C.3     1  UNL1        0.1341
     20 C          17.8855   38.4373   30.6011 C.2     1  UNL1        0.3197
     21 O          17.0994   38.7084   29.7245 O.2     1  UNL1       -0.2500
     22 O          17.4974   38.4741   31.8856 O.3     1  UNL1       -0.4359
     23 C          17.3064   39.7853   32.4792 C.3     1  UNL1        0.2885
     24 C          18.3906   40.0398   33.4944 C.ar    1  UNL1        0.0283
     25 C          18.5032   41.2830   34.0885 C.ar    1  UNL1       -0.0003
     26 C          19.4950   41.5152   35.0230 C.ar    1  UNL1       -0.0002
     27 C          20.3799   40.5070   35.3567 C.ar    1  UNL1       -0.0000
     28 C          20.2707   39.2655   34.7588 C.ar    1  UNL1       -0.0002
     29 C          19.2761   39.0319   33.8275 C.ar    1  UNL1       -0.0003
     30 C          15.9613   39.8392   33.1565 C.2     1  UNL1        0.3622
     31 O          15.7667   39.2023   34.1647 O.2     1  UNL1       -0.2457
     32 O          14.9794   40.5945   32.6398 O.3     1  UNL1       -0.4458
     33 C          13.5704   38.9100   31.5875 C.3     1  UNL1        0.0513
     34 C          14.4162   40.1666   31.3718 C.3     1  UNL1        0.2087
@<TRIPOS>BOND
     1    33    34    1
     2    34    32    1
     3    32    30    1
     4    30    31    2
     5    30    23    1
     6    23    24    1
     7    23    22    1
     8    24    29   ar
     9    24    25   ar
    10    25    26   ar
    11    26    27   ar
    12    27    28   ar
    13    28    29   ar
    14    22    20    1
    15    20    21    2
    16    20    19    1
    17    19     1    1
    18     1     2    1
    19     2     7   ar
    20     2     3   ar
    21     3     4   ar
    22     4     5   ar
    23     5    11   ar
    24     5     6   ar
    25     6     7   ar
    26     6     9   ar
    27     7     8    2
    28     9    10   ar
    29     9    12    1
    30    10    11   ar
    31    12    17   ar
    32    12    13   ar
    33    13    14   ar
    34    14    15   ar
    35    15    16   ar
    36    15    18    1
    37    16    17   ar
@<TRIPOS>MOLECULE
ZINC23310537
 32 34 0 0 0
SMALL
GASTEIGER

@<TRIPOS>ATOM
      1 C          21.1363   50.0351   20.3728 C.ar    1  UNL1        0.1560
      2 C          21.3252   48.9603   19.4748 C.ar    1  UNL1        0.1882
      3 N          20.9441   49.0513   18.2129 N.ar    1  UNL1       -0.2347
      4 C          20.3723   50.1731   17.7774 C.ar    1  UNL1        0.1001
      5 C          19.9498   50.3184   16.4426 C.ar    1  UNL1        0.0329
      6 C          19.3714   51.4845   16.0460 C.ar    1  UNL1        0.0698
      7 C          19.1848   52.5463   16.9321 C.ar    1  UNL1        0.0698
      8 C          19.5726   52.4654   18.2353 C.ar    1  UNL1        0.0329
      9 C          20.1758   51.2882   18.7066 C.ar    1  UNL1        0.1012
     10 N          20.5734   51.1617   19.9767 N.ar    1  UNL1       -0.2274
     11 CL         18.4404   54.0062   16.3593 Cl      1  UNL1       -0.0813
     12 CL         18.8527   51.6551   14.3983 Cl      1  UNL1       -0.0813
     13 C          22.7923   51.3869   25.2716 C.2     1  UNL1        0.2252
     14 O          23.9465   51.7478   25.3640 O.2     1  UNL1       -0.2749
     15 N          22.4108   50.6064   24.2411 N.am    1  UNL1       -0.2760
     16 C          23.3971   50.0889   23.2806 C.3     1  UNL1        0.1149
     17 C          22.9137   50.4145   21.8634 C.3     1  UNL1        0.1137
     18 N          21.5474   49.9047   21.6863 N.pl3   1  UNL1       -0.2884
     19 C          20.6083   50.5686   22.6001 C.3     1  UNL1        0.1137
     20 C          20.9972   50.2494   24.0475 C.3     1  UNL1        0.1149
     21 C          21.7849   51.8109   26.3089 C.3     1  UNL1        0.0767
     22 C          21.7663   53.3376   26.4077 C.3     1  UNL1        0.0091
     23 C          20.7337   53.8995   25.4285 C.3     1  UNL1        0.0005
     24 C          22.1688   51.2167   27.6655 C.3     1  UNL1        0.0091
     25 C          21.3980   49.9139   27.8882 C.3     1  UNL1        0.0005
     26 C          19.2387   50.1699   29.1188 C.3     1  UNL1        0.0000
     27 C          19.8982   50.1766   27.7382 C.3     1  UNL1        0.0000
     28 C          21.9589   47.7140   19.9551 C.2     1  UNL1        0.3619
     29 O          21.2790   46.8409   20.4556 O.2     1  UNL1       -0.2431
     30 O          23.2904   47.5467   19.8375 O.3     1  UNL1       -0.4443
     31 C          23.7476   46.5375   18.8991 C.3     1  UNL1        0.2089
     32 C          23.9009   47.1636   17.5115 C.3     1  UNL1        0.0513
@<TRIPOS>BOND
     1    26    27    1
     2    27    25    1
     3    25    24    1
     4    24    21    1
     5    21    22    1
     6    21    13    1
     7    22    23    1
     8    13    14    2
     9    13    15   am
    10    15    20    1
    11    15    16    1
    12    16    17    1
    13    17    18    1
    14    18    19    1
    15    18     1    1
    16    19    20    1
    17     1    10   ar
    18     1     2   ar
    19     2     3   ar
    20     2    28    1
    21     3     4   ar
    22     4     9   ar
    23     4     5   ar
    24     5     6   ar
    25     6     7   ar
    26     6    12    1
    27     7     8   ar
    28     7    11    1
    29     8     9   ar
    30     9    10   ar
    31    28    29    2
    32    28    30    1
    33    30    31    1
    34    31    32    1
@<TRIPOS>MOLECULE
ZINC24477573
 35 38 0 0 0
SMALL
GASTEIGER

@<TRIPOS>ATOM
      1 C          11.7587   37.0917   27.6340 C.2     1  UNL1        0.0819
      2 C          13.0356   36.7615   27.9265 C.2     1  UNL1        0.0068
      3 C          13.8014   37.5677   28.8873 C.ar    1  UNL1        0.0034
      4 C          15.1697   37.7853   28.6878 C.ar    1  UNL1        0.0033
      5 C          15.8850   38.5412   29.5899 C.ar    1  UNL1        0.0401
      6 C          15.2523   39.0893   30.6980 C.ar    1  UNL1        0.1727
      7 C          13.8894   38.8775   30.9036 C.ar    1  UNL1        0.1724
      8 C          13.1635   38.1251   30.0017 C.ar    1  UNL1        0.0400
      9 O          13.2741   39.4166   31.9899 O.3     1  UNL1       -0.4684
     10 C          11.8470   39.4854   31.9595 C.3     1  UNL1        0.2526
     11 O          15.9630   39.8342   31.5839 O.3     1  UNL1       -0.4674
     12 C          16.9988   39.1675   32.3081 C.3     1  UNL1        0.2362
     13 C          17.7858   40.1772   33.1032 C.ar    1  UNL1        0.0708
     14 C          17.2910   41.1945   33.9510 C.ar    1  UNL1        0.1001
     15 N          18.3317   41.8182   34.4229 N.ar    1  UNL1       -0.0820
     16 O          19.3623   41.3466   34.0014 O.2     1  UNL1       -0.3583
     17 C          19.1313   40.3164   33.1755 C.ar    1  UNL1        0.1539
     18 C          20.1643   39.4796   32.4659 C.3     1  UNL1        0.0751
     19 C          15.8452   41.4969   34.2498 C.3     1  UNL1        0.0554
     20 C          11.0197   36.3139   26.7071 C.2     1  UNL1        0.3419
     21 O          10.1149   35.6004   27.0970 O.2     1  UNL1       -0.2449
     22 O          11.3201   36.3651   25.3928 O.3     1  UNL1       -0.4350
     23 C          10.3671   36.9941   24.5335 C.3     1  UNL1        0.2957
     24 C          11.2399   40.1298   23.0086 C.ar    1  UNL1        0.2031
     25 N          10.4086   39.0681   23.1093 N.ar    1  UNL1       -0.1876
     26 C          10.9226   38.3062   24.0425 C.ar    1  UNL1        0.2812
     27 O          12.0321   38.9114   24.4779 O.2     1  UNL1       -0.3331
     28 N          12.2004   39.9519   23.8779 N.ar    1  UNL1       -0.0559
     29 C           9.4621   42.3041   23.7018 C.3     1  UNL1        0.0311
     30 C          10.2371   42.3331   22.4096 C.ar    1  UNL1       -0.0188
     31 C          10.1022   43.4017   21.5462 C.ar    1  UNL1       -0.0042
     32 C          10.8125   43.4293   20.3599 C.ar    1  UNL1       -0.0003
     33 C          11.6614   42.3874   20.0316 C.ar    1  UNL1        0.0001
     34 C          11.8077   41.3167   20.8899 C.ar    1  UNL1        0.0028
     35 C          11.0905   41.2812   22.0840 C.ar    1  UNL1        0.0352
@<TRIPOS>BOND
     1    29    30    1
     2    30    35   ar
     3    30    31   ar
     4    31    32   ar
     5    32    33   ar
     6    33    34   ar
     7    34    35   ar
     8    35    24    1
     9    24    28   ar
    10    24    25   ar
    11    25    26   ar
    12    26    27   ar
    13    26    23    1
    14    27    28   ar
    15    23    22    1
    16    22    20    1
    17    20    21    2
    18    20     1    1
    19     1     2    2
    20     2     3    1
    21     3     8   ar
    22     3     4   ar
    23     4     5   ar
    24     5     6   ar
    25     6     7   ar
    26     6    11    1
    27     7     8   ar
    28     7     9    1
    29     9    10    1
    30    11    12    1
    31    12    13    1
    32    13    17   ar
    33    13    14   ar
    34    14    15   ar
    35    14    19    1
    36    15    16   ar
    37    16    17   ar
    38    17    18    1
@<TRIPOS>MOLECULE
ZINC24270843
 33 35 0 0 0
SMALL
GASTEIGER

@<TRIPOS>ATOM
      1 C          12.3949   36.8303   27.5228 C.2     1  UNL1        0.1854
      2 O          13.2842   36.1531   27.0504 O.2     1  UNL1       -0.2904
      3 C          12.5893   37.4992   28.8110 C.ar    1  UNL1        0.0483
      4 C          11.5484   38.0547   29.6862 C.ar    1  UNL1        0.0167
      5 C          12.1846   38.5670   30.7529 C.ar    1  UNL1        0.0372
      6 N          13.5281   38.3739   30.6086 N.ar    1  UNL1       -0.3339
      7 C          13.7898   37.7368   29.4535 C.ar    1  UNL1        0.0399
      8 C          15.1554   37.3497   28.9472 C.3     1  UNL1        0.0501
      9 C          11.5206   39.2471   31.9223 C.3     1  UNL1        0.0500
     10 C          14.5426   38.8054   31.5734 C.3     1  UNL1        0.1054
     11 C          14.9377   40.2550   31.2841 C.3     1  UNL1        0.0245
     12 C          15.2719   40.9644   32.5978 C.3     1  UNL1        0.0026
     13 C          16.1876   40.0736   33.4398 C.3     1  UNL1        0.0117
     14 C          17.5972   40.0846   32.8453 C.3     1  UNL1        0.1096
     15 C          18.5661   40.6348   33.8599 C.2     1  UNL1        0.3171
     16 O          18.5320   41.8060   34.1546 O.2     1  UNL1       -0.2501
     17 O          19.4671   39.8237   34.4363 O.3     1  UNL1       -0.4444
     18 C          20.3869   40.4277   35.3837 C.3     1  UNL1        0.2556
     19 C          11.0906   36.9830   26.7837 C.3     1  UNL1        0.1341
     20 S          11.0370   38.6055   25.9833 S.3     1  UNL1       -0.0656
     21 N          10.6585   38.9054   23.2292 N.ar    1  UNL1       -0.1865
     22 C          10.9600   38.1108   24.2939 C.ar    1  UNL1        0.2151
     23 N          11.1882   36.9048   23.8197 N.ar    1  UNL1       -0.1011
     24 N          11.0440   36.8875   22.5440 N.ar    1  UNL1       -0.0218
     25 N          10.7269   38.0585   22.1090 N.ar    1  UNL1       -0.0382
     26 C          10.9192   43.3349   21.1067 C.3     1  UNL1        0.0307
     27 C          10.4613   42.4412   22.2305 C.ar    1  UNL1       -0.0243
     28 C           9.7332   42.9701   23.2807 C.ar    1  UNL1       -0.0045
     29 C           9.3122   42.1536   24.3139 C.ar    1  UNL1        0.0012
     30 C           9.6125   40.8053   24.2968 C.ar    1  UNL1        0.0189
     31 C          10.3475   40.2726   23.2467 C.ar    1  UNL1        0.0823
     32 C          10.7694   41.0952   22.2107 C.ar    1  UNL1       -0.0080
     33 C          11.5632   40.5199   21.0662 C.3     1  UNL1        0.0323
@<TRIPOS>BOND
     1    26    27    1
     2    27    32   ar
     3    27    28   ar
     4    28    29   ar
     5    29    30   ar
     6    30    31   ar
     7    31    32   ar
     8    31    21    1
     9    32    33    1
    10    21    25   ar
    11    21    22   ar
    12    22    23   ar
    13    22    20    1
    14    23    24   ar
    15    24    25   ar
    16    20    19    1
    17    19     1    1
    18     1     2    2
    19     1     3    1
    20     3     7   ar
    21     3     4   ar
    22     4     5   ar
    23     5     6   ar
    24     5     9    1
    25     6     7   ar
    26     6    10    1
    27     7     8    1
    28    10    11    1
    29    11    12    1
    30    12    13    1
    31    13    14    1
    32    14    15    1
    33    15    16    2
    34    15    17    1
    35    17    18    1
@<TRIPOS>MOLECULE
ZINC30758242
 36 40 0 0 0
SMALL
GASTEIGER

@<TRIPOS>ATOM
      1 C          25.0336   39.2871   27.9507 C.ar    1  UNL1        0.1056
      2 C          23.6009   39.6030   27.9017 C.ar    1  UNL1        0.0388
      3 C          23.5049   40.9817   27.9485 C.ar    1  UNL1        0.1019
      4 N          24.7530   41.4789   28.0143 N.ar    1  UNL1       -0.2282
      5 N          25.6778   40.4311   28.0111 N.ar    1  UNL1       -0.1650
      6 C          25.7637   37.2043   29.1180 C.ar    1  UNL1        0.1401
      7 C          26.3264   35.9383   29.0898 C.ar    1  UNL1        0.0370
      8 C          26.7720   35.4051   27.8954 C.ar    1  UNL1        0.0031
      9 C          26.6548   36.1276   26.7207 C.ar    1  UNL1        0.0003
     10 C          26.0919   37.3873   26.7328 C.ar    1  UNL1        0.0046
     11 C          25.6389   37.9350   27.9318 C.ar    1  UNL1        0.0534
     12 C          24.5705   36.8750   31.1472 C.3     1  UNL1        0.2525
     13 O          25.3304   37.7318   30.2924 O.3     1  UNL1       -0.4714
     14 C          25.0766   42.8403   28.0768 C.ar    1  UNL1        0.0828
     15 C          24.4346   43.6669   28.9895 C.ar    1  UNL1        0.0191
     16 C          24.7590   45.0079   29.0515 C.ar    1  UNL1        0.0015
     17 C          25.7149   45.5297   28.1993 C.ar    1  UNL1        0.0001
     18 C          26.3526   44.7101   27.2861 C.ar    1  UNL1        0.0015
     19 C          26.0361   43.3673   27.2223 C.ar    1  UNL1        0.0191
     20 C          22.4915   38.6463   27.8250 C.2     1  UNL1        0.0098
     21 C          21.9347   38.1636   28.9596 C.2     1  UNL1        0.0820
     22 C          20.8646   37.2408   28.8855 C.2     1  UNL1        0.3415
     23 O          21.0190   36.1741   28.3208 O.2     1  UNL1       -0.2449
     24 O          19.6726   37.5437   29.4414 O.3     1  UNL1       -0.4432
     25 C          19.4897   38.8872   29.8924 C.3     1  UNL1        0.2352
     26 C          18.8477   38.8762   31.2811 C.3     1  UNL1        0.1795
     27 N          17.3915   38.7914   31.1451 N.ar    1  UNL1       -0.1967
     28 C          16.4810   39.2313   32.0376 C.ar    1  UNL1        0.3524
     29 O          16.7236   39.7708   33.1035 O.2     1  UNL1       -0.2444
     30 N          15.2550   38.9687   31.5420 N.ar    1  UNL1       -0.2408
     31 C          13.9956   39.2054   32.0393 C.ar    1  UNL1        0.0859
     32 C          12.9037   38.8436   31.3431 C.ar    1  UNL1        0.0193
     33 C          13.0291   38.2128   30.0883 C.ar    1  UNL1        0.0047
     34 C          14.2597   37.9679   29.5763 C.ar    1  UNL1        0.0393
     35 C          15.4080   38.3518   30.3142 C.ar    1  UNL1        0.1708
     36 N          16.6916   38.2439   30.0612 N.ar    1  UNL1       -0.1473
@<TRIPOS>BOND
     1    12    13    1
     2    13     6    1
     3     6    11   ar
     4     6     7   ar
     5     7     8   ar
     6     8     9   ar
     7     9    10   ar
     8    10    11   ar
     9    11     1    1
    10     1     5   ar
    11     1     2   ar
    12     2     3   ar
    13     2    20    1
    14     3     4   ar
    15     4     5   ar
    16     4    14    1
    17    14    19   ar
    18    14    15   ar
    19    15    16   ar
    20    16    17   ar
    21    17    18   ar
    22    18    19   ar
    23    20    21    2
    24    21    22    1
    25    22    23    2
    26    22    24    1
    27    24    25    1
    28    25    26    1
    29    26    27    1
    30    27    36   ar
    31    27    28   ar
    32    28    29    2
    33    28    30   ar
    34    30    35   ar
    35    30    31   ar
    36    31    32   ar
    37    32    33   ar
    38    33    34   ar
    39    34    35   ar
    40    35    36   ar
@<TRIPOS>MOLECULE
ZINC23068955
 34 37 0 0 0
SMALL
GASTEIGER

@<TRIPOS>ATOM
      1 C          22.0614   38.2162   29.4270 C.3     1  UNL1        0.1143
      2 C          20.9167   37.3451   28.9774 C.2     1  UNL1        0.3177
      3 O          21.1026   36.4809   28.1538 O.2     1  UNL1       -0.2501
      4 O          19.6908   37.5294   29.4920 O.3     1  UNL1       -0.4399
      5 C          19.5619   38.5134   30.5519 C.3     1  UNL1        0.2767
      6 C          18.1050   38.7019   30.8879 C.2     1  UNL1        0.2200
      7 O          17.2502   38.2575   30.1509 O.2     1  UNL1       -0.2873
      8 C          18.3310   40.6690   34.0737 C.ar    1  UNL1        0.1390
      9 C          16.9880   40.7862   34.4138 C.ar    1  UNL1        0.0400
     10 C          16.0130   40.2286   33.6116 C.ar    1  UNL1        0.0401
     11 C          16.3663   39.5457   32.4577 C.ar    1  UNL1        0.1417
     12 C          17.7203   39.4233   32.1071 C.ar    1  UNL1        0.0754
     13 C          18.7019   39.9884   32.9304 C.ar    1  UNL1        0.0429
     14 C          20.4037   40.4018   35.2088 C.3     1  UNL1        0.2525
     15 O          19.2830   41.2220   34.8720 O.3     1  UNL1       -0.4714
     16 O          15.4070   38.9980   31.6700 O.3     1  UNL1       -0.4713
     17 C          14.1941   39.7376   31.5156 C.3     1  UNL1        0.2525
     18 C          23.3805   37.6224   28.9288 C.3     1  UNL1        0.0402
     19 C          23.9594   38.5116   27.8589 C.2     1  UNL1        0.0052
     20 C          24.2342   38.0060   26.6352 C.2     1  UNL1        0.0352
     21 C          24.2244   39.9223   28.1440 C.ar    1  UNL1        0.1068
     22 N          23.3931   40.9472   28.1007 N.ar    1  UNL1       -0.2387
     23 C          23.7765   42.1992   28.3900 C.ar    1  UNL1        0.0878
     24 C          22.9904   43.3771   28.3821 C.ar    1  UNL1        0.0196
     25 C          23.5352   44.5806   28.7038 C.ar    1  UNL1        0.0016
     26 C          24.8734   44.7061   29.0503 C.ar    1  UNL1        0.0006
     27 C          25.6766   43.5805   29.0706 C.ar    1  UNL1        0.0080
     28 C          25.1368   42.3601   28.7480 C.ar    1  UNL1        0.0485
     29 S          25.7544   40.6973   28.6477 S.2     1  UNL1       -0.0668
     30 C          24.6124   38.9010   25.5425 C.ar    1  UNL1        0.1453
     31 C          25.8750   39.0764   25.0478 C.ar    1  UNL1        0.0407
     32 C          25.7751   40.0207   24.0118 C.ar    1  UNL1        0.0438
     33 C          24.4756   40.3751   23.9207 C.ar    1  UNL1        0.1796
     34 O          23.7762   39.6939   24.8418 O.2     1  UNL1       -0.4504
@<TRIPOS>BOND
     1    14    15    1
     2    15     8    1
     3     8    13   ar
     4     8     9   ar
     5     9    10   ar
     6    10    11   ar
     7    11    12   ar
     8    11    16    1
     9    12    13   ar
    10    12     6    1
    11     6     7    2
    12     6     5    1
    13     5     4    1
    14     4     2    1
    15     2     3    2
    16     2     1    1
    17     1    18    1
    18    18    19    1
    19    19    20    2
    20    19    21    1
    21    20    30    1
    22    30    34   ar
    23    30    31   ar
    24    31    32   ar
    25    32    33   ar
    26    33    34   ar
    27    21    29   ar
    28    21    22   ar
    29    22    23   ar
    30    23    28   ar
    31    23    24   ar
    32    24    25   ar
    33    25    26   ar
    34    26    27   ar
    35    27    28   ar
    36    28    29   ar
    37    16    17    1
@<TRIPOS>MOLECULE
ZINC09292425
 34 37 0 0 0
SMALL
GASTEIGER

@<TRIPOS>ATOM
      1 C          25.0262   40.7035   26.0229 C.ar    1  UNL1        0.1076
      2 C          26.2840   41.1048   26.4264 C.ar    1  UNL1        0.0194
      3 C          27.2846   41.2684   25.4704 C.ar    1  UNL1        0.0593
      4 N          27.0323   41.0429   24.1982 N.ar    1  UNL1       -0.2311
      5 C          25.8198   40.6535   23.7908 C.ar    1  UNL1        0.1650
      6 N          24.8008   40.4778   24.6893 N.ar    1  UNL1       -0.2070
      7 N          23.6652   40.0726   23.9802 N.ar    1  UNL1       -0.1676
      8 C          23.9545   40.0038   22.7042 C.ar    1  UNL1        0.0823
      9 C          25.2989   40.3526   22.5262 C.ar    1  UNL1        0.0511
     10 C          22.9981   39.6103   21.6081 C.3     1  UNL1        0.0540
     11 C          28.6626   41.7064   25.8951 C.3     1  UNL1        0.0519
     12 C          26.0314   40.4005   21.2398 C.ar    1  UNL1        0.0041
     13 C          26.6784   39.2619   20.7595 C.ar    1  UNL1        0.0001
     14 C          27.3588   39.3127   19.5602 C.ar    1  UNL1        0.0000
     15 C          27.4002   40.4899   18.8345 C.ar    1  UNL1        0.0000
     16 C          26.7605   41.6225   19.3055 C.ar    1  UNL1        0.0000
     17 C          26.0771   41.5845   20.5036 C.ar    1  UNL1        0.0001
     18 S          23.7338   40.4847   27.2003 S.3     1  UNL1       -0.0871
     19 C          23.5666   38.6832   27.1525 C.3     1  UNL1        0.1284
     20 C          22.1666   38.3197   26.7297 C.2     1  UNL1        0.1731
     21 O          21.9829   37.7323   25.6907 O.2     1  UNL1       -0.2945
     22 C          20.9956   38.6893   27.6035 C.3     1  UNL1        0.1746
     23 C          20.7730   37.6077   28.6290 C.2     1  UNL1        0.3246
     24 O          20.6259   36.4615   28.2760 O.2     1  UNL1       -0.2496
     25 O          20.7382   37.9175   29.9346 O.3     1  UNL1       -0.4482
     26 C          19.7590   39.0010   31.8833 C.3     1  UNL1        0.0513
     27 C          19.5631   38.6232   30.4136 C.3     1  UNL1        0.2086
     28 C          26.5714   41.3624   27.8831 C.3     1  UNL1        0.0559
     29 C          26.0879   42.7405   28.2545 C.ar    1  UNL1       -0.0177
     30 C          25.4776   42.9529   29.4766 C.ar    1  UNL1       -0.0039
     31 C          25.0385   44.2180   29.8193 C.ar    1  UNL1       -0.0003
     32 C          25.2007   45.2688   28.9359 C.ar    1  UNL1       -0.0000
     33 C          25.8060   45.0554   27.7115 C.ar    1  UNL1       -0.0003
     34 C          26.2498   43.7913   27.3709 C.ar    1  UNL1       -0.0039
@<TRIPOS>BOND
     1    26    27    1
     2    27    25    1
     3    25    23    1
     4    23    24    2
     5    23    22    1
     6    22    20    1
     7    20    21    2
     8    20    19    1
     9    19    18    1
    10    18     1    1
    11     1     6   ar
    12     1     2   ar
    13     2     3   ar
    14     2    28    1
    15     3     4   ar
    16     3    11    1
    17     4     5   ar
    18     5     9   ar
    19     5     6   ar
    20     6     7   ar
    21     7     8   ar
    22     8     9   ar
    23     8    10    1
    24     9    12    1
    25    12    17   ar
    26    12    13   ar
    27    13    14   ar
    28    14    15   ar
    29    15    16   ar
    30    16    17   ar
    31    28    29    1
    32    29    34   ar
    33    29    30   ar
    34    30    31   ar
    35    31    32   ar
    36    32    33   ar
    37    33    34   ar
@<TRIPOS>MOLECULE
ZINC28030100
 35 38 0 0 0
SMALL
GASTEIGER

@<TRIPOS>ATOM
      1 C          19.3246   38.6835   31.1861 C.2     1  UNL1        0.3613
      2 O          18.9730   37.6126   30.7322 O.2     1  UNL1       -0.2431
      3 N          16.3077   40.2493   32.4472 N.ar    1  UNL1       -0.2165
      4 C          16.6140   40.8517   33.6146 C.ar    1  UNL1        0.2763
      5 O          15.7664   41.4577   34.2439 O.2     1  UNL1       -0.2655
      6 C          17.9935   40.7547   34.1118 C.ar    1  UNL1        0.0593
      7 C          18.4092   41.3358   35.3057 C.ar    1  UNL1        0.0048
      8 C          19.7236   41.2032   35.6998 C.ar    1  UNL1        0.0002
      9 C          20.6309   40.4984   34.9197 C.ar    1  UNL1        0.0001
     10 C          20.2386   39.9157   33.7331 C.ar    1  UNL1        0.0019
     11 C          18.9173   40.0370   33.3173 C.ar    1  UNL1        0.0304
     12 C          18.4178   39.4452   32.0654 C.ar    1  UNL1        0.1764
     13 N          17.1571   39.6038   31.7411 N.ar    1  UNL1       -0.1602
     14 C          14.9299   40.3445   31.9586 C.3     1  UNL1        0.1307
     15 C          14.3069   38.9478   31.9138 C.3     1  UNL1        0.0265
     16 C          12.8253   39.0617   31.5494 C.3     1  UNL1        0.0021
     17 C          12.5168   38.1336   30.3728 C.3     1  UNL1        0.0001
     18 C          13.6862   37.4523   28.2727 C.3     1  UNL1        0.0000
     19 C          13.8256   37.5974   29.7894 C.3     1  UNL1        0.0000
     20 O          20.5427   39.1752   30.8860 O.3     1  UNL1       -0.4342
     21 C          21.2372   38.5750   29.7609 C.3     1  UNL1        0.2930
     22 C          21.7660   39.6609   28.8597 C.2     1  UNL1        0.2705
     23 O          21.2149   40.7406   28.8232 O.2     1  UNL1       -0.2708
     24 N          22.8514   39.4321   28.0942 N.am    1  UNL1       -0.2744
     25 C          23.6187   38.1742   28.0454 C.3     1  UNL1        0.0938
     26 C          24.3072   38.1860   26.6552 C.3     1  UNL1        0.0236
     27 C          24.6630   39.6882   26.4994 C.3     1  UNL1        0.0261
     28 C          23.4702   40.3977   27.1742 C.3     1  UNL1        0.0980
     29 C          23.9566   41.5990   27.9433 C.ar    1  UNL1       -0.0041
     30 C          25.1442   41.5335   28.6479 C.ar    1  UNL1       -0.0004
     31 C          25.5942   42.6363   29.3489 C.ar    1  UNL1        0.0294
     32 C          24.8496   43.8036   29.3541 C.ar    1  UNL1        0.1401
     33 C          23.6574   43.8662   28.6528 C.ar    1  UNL1        0.0294
     34 C          23.2121   42.7638   27.9482 C.ar    1  UNL1       -0.0004
     35 F          25.2856   44.8805   30.0436 F       1  UNL1       -0.2042
@<TRIPOS>BOND
     1    18    19    1
     2    19    17    1
     3    17    16    1
     4    16    15    1
     5    15    14    1
     6    14     3    1
     7     3    13   ar
     8     3     4   ar
     9     4     5    2
    10     4     6   ar
    11     6    11   ar
    12     6     7   ar
    13     7     8   ar
    14     8     9   ar
    15     9    10   ar
    16    10    11   ar
    17    11    12   ar
    18    12    13   ar
    19    12     1    1
    20     1     2    2
    21     1    20    1
    22    20    21    1
    23    21    22    1
    24    22    23    2
    25    22    24   am
    26    24    28    1
    27    24    25    1
    28    25    26    1
    29    26    27    1
    30    27    28    1
    31    28    29    1
    32    29    34   ar
    33    29    30   ar
    34    30    31   ar
    35    31    32   ar
    36    32    33   ar
    37    32    35    1
    38    33    34   ar
@<TRIPOS>MOLECULE
ZINC08899181
 36 39 0 0 0
SMALL
GASTEIGER

@<TRIPOS>ATOM
      1 N          24.9125   37.8174   27.7148 N.ar    1  UNL1       -0.2119
      2 C          25.5661   37.1548   26.7430 C.ar    1  UNL1        0.2829
      3 O          25.4065   37.4622   25.5743 O.2     1  UNL1       -0.2653
      4 C          26.4403   36.0890   27.0917 C.ar    1  UNL1        0.1345
      5 C          26.5816   35.7910   28.4581 C.ar    1  UNL1        0.0303
      6 C          25.8328   36.5680   29.3839 C.ar    1  UNL1        0.1013
      7 N          25.0491   37.5282   28.9561 N.ar    1  UNL1       -0.1665
      8 C          25.9389   36.2923   30.8369 C.ar    1  UNL1        0.0193
      9 C          24.9433   35.5635   31.4853 C.ar    1  UNL1        0.0016
     10 C          25.0501   35.3053   32.8368 C.ar    1  UNL1        0.0000
     11 C          26.1367   35.7783   33.5502 C.ar    1  UNL1        0.0000
     12 C          27.1252   36.5068   32.9132 C.ar    1  UNL1        0.0000
     13 C          27.0320   36.7661   31.5609 C.ar    1  UNL1        0.0016
     14 C          27.4716   34.7039   28.9157 C.ar    1  UNL1        0.0019
     15 C          28.8246   34.9575   29.1518 C.ar    1  UNL1        0.0001
     16 C          29.6484   33.9394   29.5848 C.ar    1  UNL1        0.0000
     17 C          29.1397   32.6663   29.7736 C.ar    1  UNL1        0.0000
     18 C          27.8013   32.4068   29.5360 C.ar    1  UNL1        0.0000
     19 C          26.9649   33.4168   29.1087 C.ar    1  UNL1        0.0001
     20 C          27.1707   35.3328   26.0650 C.2     1  UNL1        0.3461
     21 O          28.2987   35.6629   25.7543 O.2     1  UNL1       -0.2447
     22 O          26.5898   34.2728   25.4675 O.3     1  UNL1       -0.4412
     23 C          26.6327   34.2286   24.0169 C.3     1  UNL1        0.2560
     24 C          24.0109   38.9096   27.3402 C.3     1  UNL1        0.1571
     25 C          20.3790   38.5894   29.5749 C.ar    1  UNL1        0.0756
     26 C          20.8804   37.4813   28.8890 C.ar    1  UNL1        0.0062
     27 C          22.0523   37.5917   28.1699 C.ar    1  UNL1       -0.0021
     28 C          22.7309   38.7968   28.1275 C.ar    1  UNL1        0.0022
     29 C          22.2425   39.8975   28.8092 C.ar    1  UNL1       -0.0021
     30 C          21.0687   39.8024   29.5278 C.ar    1  UNL1        0.0062
     31 C          19.1242   38.4788   30.3467 C.2     1  UNL1        0.3411
     32 O          18.0531   38.5606   29.7795 O.2     1  UNL1       -0.2449
     33 O          19.1677   38.2874   31.6794 O.3     1  UNL1       -0.4492
     34 C          17.9101   39.4793   33.3906 C.3     1  UNL1        0.0473
     35 C          19.1656   39.4741   32.5162 C.3     1  UNL1        0.1694
     36 C          20.4085   39.4712   33.4084 C.3     1  UNL1        0.0473
@<TRIPOS>BOND
     1    34    35    1
     2    35    36    1
     3    35    33    1
     4    33    31    1
     5    31    32    2
     6    31    25    1
     7    25    30   ar
     8    25    26   ar
     9    26    27   ar
    10    27    28   ar
    11    28    29   ar
    12    28    24    1
    13    29    30   ar
    14    24     1    1
    15     1     7   ar
    16     1     2   ar
    17     2     3    2
    18     2     4   ar
    19     4     5   ar
    20     4    20    1
    21     5     6   ar
    22     5    14    1
    23     6     7   ar
    24     6     8    1
    25     8    13   ar
    26     8     9   ar
    27     9    10   ar
    28    10    11   ar
    29    11    12   ar
    30    12    13   ar
    31    14    19   ar
    32    14    15   ar
    33    15    16   ar
    34    16    17   ar
    35    17    18   ar
    36    18    19   ar
    37    20    21    2
    38    20    22    1
    39    22    23    1
@<TRIPOS>MOLECULE
ZINC30853280
 33 36 0 0 0
SMALL
GASTEIGER

@<TRIPOS>ATOM
      1 C          19.1750   39.4190   34.4573 C.2     1  UNL1        0.3218
      2 O          19.8610   39.0134   35.3654 O.2     1  UNL1       -0.2497
      3 O          17.8821   39.0659   34.3833 O.3     1  UNL1       -0.4415
      4 C          16.9009   40.1312   34.4863 C.3     1  UNL1        0.2572
      5 C          15.0096   39.6464   31.4430 C.ar    1  UNL1        0.2293
      6 N          15.6396   39.1819   32.4962 N.ar    1  UNL1       -0.2088
      7 C          16.1173   40.2181   33.2019 C.ar    1  UNL1        0.1433
      8 C          15.7772   41.3483   32.5560 C.ar    1  UNL1        0.1998
      9 O          15.0850   40.9884   31.4571 O.2     1  UNL1       -0.4317
     10 C          12.3880   36.4690   27.4249 C.3     1  UNL1        0.0310
     11 C          13.0745   37.3012   28.4771 C.ar    1  UNL1       -0.0222
     12 C          14.4228   37.5885   28.3568 C.ar    1  UNL1       -0.0041
     13 C          15.0572   38.3497   29.3164 C.ar    1  UNL1        0.0040
     14 C          14.3360   38.8305   30.4106 C.ar    1  UNL1        0.0496
     15 C          12.9779   38.5326   30.5287 C.ar    1  UNL1       -0.0177
     16 C          12.3542   37.7742   29.5592 C.ar    1  UNL1       -0.0084
     17 C          12.1928   39.0422   31.7098 C.3     1  UNL1        0.0312
     18 C          19.7709   40.3212   33.4076 C.3     1  UNL1        0.1359
     19 C          20.0189   39.5314   32.1483 C.ar    1  UNL1       -0.0112
     20 C          21.3080   39.1674   31.8049 C.ar    1  UNL1       -0.0056
     21 C          21.5386   38.4432   30.6518 C.ar    1  UNL1       -0.0241
     22 C          20.4741   38.0805   29.8367 C.ar    1  UNL1       -0.1123
     23 C          19.1803   38.4477   30.1846 C.ar    1  UNL1       -0.0241
     24 C          18.9567   39.1719   31.3391 C.ar    1  UNL1       -0.0056
     25 N          20.7038   37.3484   28.6695 N.pl3   1  UNL1       -0.5354
     26 S          21.2021   38.1211   27.2922 S.O2    1  UNL1       -0.0520
     27 O          21.2913   37.1284   26.2793 O.2     1  UNL1       -0.1837
     28 O          20.3862   39.2765   27.1568 O.2     1  UNL1       -0.1837
     29 C          22.8430   38.6944   27.5811 C.ar    1  UNL1        0.1187
     30 C          23.9575   37.9807   27.8742 C.ar    1  UNL1        0.0241
     31 C          25.1522   38.6500   28.0617 C.ar    1  UNL1        0.0088
     32 C          25.1741   40.0004   27.9469 C.ar    1  UNL1        0.0367
     33 S          23.4708   40.3655   27.5561 S.2     1  UNL1       -0.0697
@<TRIPOS>UNITY_ATOM_ATTR
25 1
charge -1
@<TRIPOS>BOND
     1    10    11    1
     2    11    16   ar
     3    11    12   ar
     4    12    13   ar
     5    13    14   ar
     6    14    15   ar
     7    14     5    1
     8    15    16   ar
     9    15    17    1
    10     5     9   ar
    11     5     6   ar
    12     6     7   ar
    13     7     8   ar
    14     7     4    1
    15     8     9   ar
    16     4     3    1
    17     3     1    1
    18     1     2    2
    19     1    18    1
    20    18    19    1
    21    19    24   ar
    22    19    20   ar
    23    20    21   ar
    24    21    22   ar
    25    22    23   ar
    26    22    25    1
    27    23    24   ar
    28    25    26    1
    29    26    27    2
    30    26    28    2
    31    26    29    1
    32    29    33   ar
    33    29    30   ar
    34    30    31   ar
    35    31    32   ar
    36    32    33   ar
@<TRIPOS>MOLECULE
ZINC31711886
 33 36 0 0 0
SMALL
GASTEIGER

@<TRIPOS>ATOM
      1 C          18.6738   38.7856   30.7720 C.ar    1  UNL1        0.1742
      2 N          17.6491   38.2837   30.1281 N.ar    1  UNL1       -0.2223
      3 C          16.3760   38.5803   30.4809 C.ar    1  UNL1        0.0882
      4 C          15.2843   38.0484   29.7888 C.ar    1  UNL1        0.0258
      5 C          13.9958   38.3814   30.1868 C.ar    1  UNL1        0.0771
      6 C          13.7874   39.2424   31.2723 C.ar    1  UNL1        0.0067
      7 C          14.8461   39.7682   31.9554 C.ar    1  UNL1        0.0065
      8 C          16.1482   39.4474   31.5732 C.ar    1  UNL1        0.0739
      9 C          17.3177   39.9917   32.2816 C.ar    1  UNL1        0.2641
     10 O          17.1871   40.7431   33.2299 O.2     1  UNL1       -0.2669
     11 N          18.5433   39.6259   31.8404 N.ar    1  UNL1       -0.2681
     12 C          12.8349   37.8225   29.4594 C.2     1  UNL1        0.3414
     13 O          11.7145   37.9594   29.9072 O.2     1  UNL1       -0.2449
     14 O          13.0208   37.1618   28.3005 O.3     1  UNL1       -0.4413
     15 C          11.9090   37.1428   27.3669 C.3     1  UNL1        0.2560
     16 S          20.2959   38.3508   30.2386 S.3     1  UNL1       -0.0686
     17 C          20.4125   39.3543   28.7368 C.3     1  UNL1        0.1336
     18 C          21.1763   40.6440   29.0432 C.3     1  UNL1        0.0221
     19 C          22.6163   37.8013   26.3661 C.ar    1  UNL1        0.1805
     20 N          22.4151   38.6757   27.3680 N.ar    1  UNL1       -0.1942
     21 C          21.1427   38.5793   27.6703 C.ar    1  UNL1        0.2464
     22 O          20.6161   37.6669   26.8481 O.2     1  UNL1       -0.3365
     23 N          21.4757   37.2338   26.1099 N.ar    1  UNL1       -0.0606
     24 C          23.9234   37.5330   25.6656 C.3     1  UNL1        0.0692
     25 C          25.0432   38.3108   26.3598 C.3     1  UNL1        0.0081
     26 C          25.5764   37.0449   28.4468 C.3     1  UNL1        0.0000
     27 C          26.0194   37.3284   27.0100 C.3     1  UNL1        0.0005
     28 C          19.7401   40.1403   32.5107 C.3     1  UNL1        0.1753
     29 C          19.8439   39.5359   33.8872 C.ar    1  UNL1        0.1460
     30 C          20.2764   40.1675   34.9933 C.ar    1  UNL1        0.0382
     31 C          20.2089   39.2327   36.0517 C.ar    1  UNL1        0.0435
     32 C          19.7392   38.0856   35.5292 C.ar    1  UNL1        0.1792
     33 O          19.5199   38.2751   34.2179 O.2     1  UNL1       -0.4527
@<TRIPOS>BOND
     1    26    27    1
     2    27    25    1
     3    25    24    1
     4    24    19    1
     5    19    23   ar
     6    19    20   ar
     7    20    21   ar
     8    21    22   ar
     9    21    17    1
    10    22    23   ar
    11    17    18    1
    12    17    16    1
    13    16     1    1
    14     1    11   ar
    15     1     2   ar
    16     2     3   ar
    17     3     8   ar
    18     3     4   ar
    19     4     5   ar
    20     5     6   ar
    21     5    12    1
    22     6     7   ar
    23     7     8   ar
    24     8     9   ar
    25     9    10    2
    26     9    11   ar
    27    11    28    1
    28    28    29    1
    29    29    33   ar
    30    29    30   ar
    31    30    31   ar
    32    31    32   ar
    33    32    33   ar
    34    12    13    2
    35    12    14    1
    36    14    15    1
@<TRIPOS>MOLECULE
ZINC27517376
 29 31 0 0 0
SMALL
GASTEIGER

@<TRIPOS>ATOM
      1 C          23.2820   41.1755   28.0246 C.ar    1  UNL1        0.1972
      2 N          22.1193   41.7569   28.2085 N.ar    1  UNL1       -0.1220
      3 N          21.2916   40.9249   28.7322 N.ar    1  UNL1       -0.1286
      4 C          21.8717   39.7735   28.9210 C.ar    1  UNL1        0.1921
      5 N          23.1613   39.8891   28.4739 N.ar    1  UNL1       -0.2695
      6 C          24.1513   38.8957   28.4760 C.ar    1  UNL1        0.0671
      7 C          24.8519   38.6145   29.6410 C.ar    1  UNL1        0.0176
      8 C          25.8228   37.6320   29.6413 C.ar    1  UNL1        0.0015
      9 C          26.1045   36.9362   28.4801 C.ar    1  UNL1        0.0001
     10 C          25.4119   37.2177   27.3168 C.ar    1  UNL1        0.0015
     11 C          24.4365   38.1955   27.3118 C.ar    1  UNL1        0.0176
     12 S          24.7242   41.9123   27.3306 S.3     1  UNL1       -0.0705
     13 C          25.6764   42.2209   28.8386 C.3     1  UNL1        0.0911
     14 C          27.0143   41.5349   28.7372 C.2     1  UNL1        0.0605
     15 O          27.1932   40.6801   27.9022 O.co2   1  UNL1       -0.5483
     16 O          28.0073   41.8734   29.5745 O.co2   1  UNL1       -0.5483
     17 C          25.8869   43.7266   29.0098 C.3     1  UNL1        0.0169
     18 C          25.3249   44.4620   27.7915 C.3     1  UNL1        0.0013
     19 C          24.6087   46.8506   27.6367 C.3     1  UNL1        0.0000
     20 C          24.2848   45.4865   28.2492 C.3     1  UNL1        0.0000
     21 C          21.2392   38.5413   29.5149 C.3     1  UNL1        0.2706
     22 O          21.2726   38.6289   30.9408 O.3     1  UNL1       -0.4673
     23 C          20.1067   38.9376   31.5676 C.ar    1  UNL1        0.1392
     24 C          18.8958   38.5538   31.0100 C.ar    1  UNL1        0.0374
     25 C          17.7117   38.8728   31.6462 C.ar    1  UNL1        0.0098
     26 C          17.7329   39.5754   32.8377 C.ar    1  UNL1        0.0348
     27 C          18.9394   39.9593   33.3952 C.ar    1  UNL1        0.0098
     28 C          20.1258   39.6417   32.7627 C.ar    1  UNL1        0.0374
     29 BR         16.1106   40.0110   33.7060 Br      1  UNL1       -0.0490
@<TRIPOS>UNITY_ATOM_ATTR
16 1
charge -1
@<TRIPOS>BOND
     1    19    20    1
     2    20    18    1
     3    18    17    1
     4    17    13    1
     5    13    14    1
     6    13    12    1
     7    14    15   ar
     8    14    16   ar
     9    12     1    1
    10     1     5   ar
    11     1     2   ar
    12     2     3   ar
    13     3     4   ar
    14     4     5   ar
    15     4    21    1
    16     5     6    1
    17     6    11   ar
    18     6     7   ar
    19     7     8   ar
    20     8     9   ar
    21     9    10   ar
    22    10    11   ar
    23    21    22    1
    24    22    23    1
    25    23    28   ar
    26    23    24   ar
    27    24    25   ar
    28    25    26   ar
    29    26    27   ar
    30    26    29    1
    31    27    28   ar
@<TRIPOS>MOLECULE
ZINC11823527
 33 36 0 0 0
SMALL
GASTEIGER

@<TRIPOS>ATOM
      1 N          23.9753   38.7531   28.3234 N.am    1  UNL1       -0.2781
      2 C          22.6484   38.5209   28.2790 C.2     1  UNL1        0.2379
      3 O          22.2257   37.5198   27.7404 O.2     1  UNL1       -0.2738
      4 H          24.3184   39.5657   28.7607 H       1  UNL1        0.1553
      5 C          25.7205   36.9641   28.3916 C.ar    1  UNL1        0.0918
      6 C          26.5347   36.1263   27.5429 C.ar    1  UNL1       -0.0077
      7 C          26.3885   36.2719   26.2139 C.ar    1  UNL1        0.0326
      8 S          25.1439   37.5378   26.0742 S.2     1  UNL1       -0.0718
      9 C          24.8567   37.8479   27.7533 C.ar    1  UNL1        0.0867
     10 C          25.8000   36.8866   29.8517 C.2     1  UNL1        0.3426
     11 O          26.6424   37.5286   30.4498 O.2     1  UNL1       -0.2448
     12 O          24.9390   36.1036   30.5334 O.3     1  UNL1       -0.4454
     13 C          25.9684   34.1193   31.4996 C.3     1  UNL1        0.0513
     14 C          25.4186   35.5206   31.7737 C.3     1  UNL1        0.2089
     15 C          27.5067   35.1307   28.1217 C.3     1  UNL1        0.0271
     16 C          27.4480   33.8322   27.3146 C.3     1  UNL1        0.0044
     17 C          28.8142   33.5635   26.6806 C.3     1  UNL1        0.0003
     18 C          27.0786   32.6720   28.2411 C.3     1  UNL1        0.0003
     19 C          21.6901   39.5051   28.8987 C.3     1  UNL1        0.1501
     20 S          21.3786   39.0410   30.6245 S.3     1  UNL1       -0.0658
     21 C          19.6252   38.8937   30.7164 C.ar    1  UNL1        0.1945
     22 N          18.8424   38.4091   29.7831 N.ar    1  UNL1       -0.1208
     23 N          17.5232   38.4691   30.2506 N.ar    1  UNL1       -0.1122
     24 C          17.5429   38.9880   31.4537 C.ar    1  UNL1        0.2221
     25 N          18.8420   39.2641   31.7736 N.ar    1  UNL1       -0.2806
     26 N          16.4368   39.2178   32.2617 N.pl3   1  UNL1       -0.2783
     27 C          16.3363   40.6531   32.6308 C.3     1  UNL1        0.0937
     28 C          14.8505   40.8104   33.0409 C.3     1  UNL1        0.0233
     29 C          14.1156   39.8934   32.0364 C.3     1  UNL1        0.0233
     30 C          15.1824   38.8965   31.5470 C.3     1  UNL1        0.0937
     31 C          19.3130   39.8545   33.0289 C.3     1  UNL1        0.0901
     32 C          20.5525   39.2367   33.6789 C.3     1  UNL1        0.0246
     33 C          19.1713   39.0160   34.3007 C.3     1  UNL1        0.0246
@<TRIPOS>BOND
     1    13    14    1
     2    14    12    1
     3    12    10    1
     4    10    11    2
     5    10     5    1
     6     5     9   ar
     7     5     6   ar
     8     6     7   ar
     9     6    15    1
    10     7     8   ar
    11     8     9   ar
    12     9     1    1
    13     1     2   am
    14     2     3    2
    15     2    19    1
    16    19    20    1
    17    20    21    1
    18    21    25   ar
    19    21    22   ar
    20    22    23   ar
    21    23    24   ar
    22    24    25   ar
    23    24    26    1
    24    25    31    1
    25    31    33    1
    26    31    32    1
    27    32    33    1
    28    26    30    1
    29    26    27    1
    30    27    28    1
    31    28    29    1
    32    29    30    1
    33    15    16    1
    34    16    17    1
    35    16    18    1
    36     1     4    1
@<TRIPOS>MOLECULE
ZINC10057682
 35 38 0 0 0
SMALL
GASTEIGER

@<TRIPOS>ATOM
      1 O          12.6605   37.1154   27.9310 O.3     1  UNL1       -0.4353
      2 C          12.8098   37.6708   29.1523 C.2     1  UNL1        0.3419
      3 O          11.8348   38.0655   29.7646 O.2     1  UNL1       -0.2449
      4 C          14.0974   37.7939   29.7196 C.2     1  UNL1        0.0819
      5 C          14.4634   38.9500   30.3258 C.2     1  UNL1        0.0082
      6 C          15.7950   39.0754   30.9188 C.ar    1  UNL1        0.0188
      7 C          16.9527   38.5125   30.4582 C.ar    1  UNL1        0.0759
      8 N          17.9826   38.8564   31.2699 N.ar    1  UNL1       -0.3249
      9 C          17.5361   39.6540   32.3039 C.ar    1  UNL1        0.0599
     10 C          16.1531   39.8290   32.1356 C.ar    1  UNL1        0.0172
     11 C          15.4309   40.5982   33.0435 C.ar    1  UNL1        0.0015
     12 C          16.0800   41.1864   34.1076 C.ar    1  UNL1        0.0001
     13 C          17.4460   41.0146   34.2754 C.ar    1  UNL1        0.0015
     14 C          18.1730   40.2556   33.3839 C.ar    1  UNL1        0.0172
     15 C          19.3729   38.4355   31.0797 C.3     1  UNL1        0.1222
     16 C          19.8525   38.8712   29.6937 C.3     1  UNL1        0.1298
     17 C          20.2824   37.6890   28.9292 C.1     1  UNL1        0.0752
     18 N          20.6142   36.7766   28.3392 N.1     1  UNL1       -0.1958
     19 C          11.4183   37.3430   27.2622 C.3     1  UNL1        0.2930
     20 N          10.5957   39.0348   25.6562 N.am    1  UNL1       -0.2757
     21 C          11.6299   38.3084   26.1246 C.2     1  UNL1        0.2711
     22 O          12.7306   38.4318   25.6308 O.2     1  UNL1       -0.2707
     23 H           9.7022   38.9345   26.0571 H       1  UNL1        0.1554
     24 C          10.7409   39.6730   23.2480 C.ar    1  UNL1        0.0915
     25 C          10.9820   40.7981   22.3445 C.ar    1  UNL1       -0.0122
     26 C          11.2394   41.9713   22.9494 C.ar    1  UNL1        0.0047
     27 S          11.1617   41.6114   24.6870 S.2     1  UNL1       -0.0767
     28 C          10.7903   39.9228   24.6098 C.ar    1  UNL1        0.0864
     29 C          11.4788   43.0770   21.9573 C.3     1  UNL1        0.0330
     30 C          10.9108   42.5356   20.6268 C.3     1  UNL1        0.0099
     31 C          11.0302   41.0122   20.8311 C.3     1  UNL1        0.0272
     32 C          10.4533   38.3331   22.7320 C.2     1  UNL1        0.3427
     33 O           9.4962   38.1546   22.0028 O.2     1  UNL1       -0.2448
     34 C          10.6102   36.1404   23.6667 C.3     1  UNL1        0.2560
     35 O          11.2498   37.2968   23.0651 O.3     1  UNL1       -0.4413
@<TRIPOS>BOND
     1    34    35    1
     2    35    32    1
     3    32    33    2
     4    32    24    1
     5    24    28   ar
     6    24    25   ar
     7    25    31    1
     8    25    26   ar
     9    26    27   ar
    10    26    29    1
    11    27    28   ar
    12    28    20    1
    13    20    21   am
    14    21    22    2
    15    21    19    1
    16    19     1    1
    17     1     2    1
    18     2     3    2
    19     2     4    1
    20     4     5    2
    21     5     6    1
    22     6    10   ar
    23     6     7   ar
    24     7     8   ar
    25     8     9   ar
    26     8    15    1
    27     9    14   ar
    28     9    10   ar
    29    10    11   ar
    30    11    12   ar
    31    12    13   ar
    32    13    14   ar
    33    15    16    1
    34    16    17    1
    35    17    18    3
    36    29    30    1
    37    30    31    1
    38    20    23    1
@<TRIPOS>MOLECULE
ZINC30779545
 34 37 0 0 0
SMALL
GASTEIGER

@<TRIPOS>ATOM
      1 C          20.1765   38.3743   29.5690 C.2     1  UNL1        0.3418
      2 O          20.1274   37.2169   29.2036 O.2     1  UNL1       -0.2449
      3 C          19.4732   39.5342   33.0800 C.ar    1  UNL1        0.0605
      4 C          20.1730   39.1426   31.9483 C.ar    1  UNL1        0.0213
      5 C          19.4699   38.7917   30.7976 C.ar    1  UNL1        0.0813
      6 C          18.0585   38.8430   30.8461 C.ar    1  UNL1        0.0626
      7 C          17.0366   38.5665   29.9133 C.ar    1  UNL1        0.1234
      8 N          15.8853   38.7862   30.4815 N.ar    1  UNL1       -0.1664
      9 N          16.0822   39.2132   31.8001 N.ar    1  UNL1       -0.2360
     10 C          17.4313   39.2528   32.0398 C.ar    1  UNL1        0.1606
     11 N          18.1597   39.5785   33.0982 N.ar    1  UNL1       -0.2312
     12 C          19.7789   41.2989   34.7951 C.3     1  UNL1        0.0063
     13 C          20.2383   39.9189   34.3199 C.3     1  UNL1        0.0404
     14 C          19.9781   38.8880   35.4201 C.3     1  UNL1        0.0063
     15 C          15.0288   39.5583   32.7578 C.3     1  UNL1        0.1069
     16 C          15.1631   41.0296   33.1554 C.3     1  UNL1        0.0264
     17 C          13.6596   39.3264   32.1157 C.3     1  UNL1        0.0264
     18 O          20.8752   39.2773   28.8539 O.3     1  UNL1       -0.4387
     19 C          21.8175   38.7592   27.8782 C.3     1  UNL1        0.2547
     20 C          23.1838   38.6554   28.5054 C.ar    1  UNL1        0.1098
     21 C          24.0001   39.7406   28.5408 C.ar    1  UNL1        0.0553
     22 S          25.4286   39.0529   29.3686 S.2     1  UNL1       -0.0661
     23 C          24.7842   37.3981   29.5770 C.ar    1  UNL1        0.1134
     24 N          23.5848   37.5170   29.0234 N.ar    1  UNL1       -0.2389
     25 C          25.4157   36.2179   30.2015 C.ar    1  UNL1        0.0579
     26 C          24.9799   35.7684   31.4492 C.ar    1  UNL1        0.0082
     27 C          25.5681   34.6641   32.0268 C.ar    1  UNL1        0.0372
     28 C          26.6016   34.0015   31.3756 C.ar    1  UNL1        0.1418
     29 C          27.0449   34.4439   30.1380 C.ar    1  UNL1        0.0738
     30 C          26.4578   35.5492   29.5466 C.ar    1  UNL1        0.1436
     31 O          26.8912   35.9843   28.3353 O.3     1  UNL1       -0.4713
     32 C          26.9962   35.0097   27.2955 C.3     1  UNL1        0.2525
     33 O          27.1801   32.9166   31.9535 O.3     1  UNL1       -0.4713
     34 C          26.9790   31.6555   31.3124 C.3     1  UNL1        0.2525
@<TRIPOS>BOND
     1    12    13    1
     2    13    14    1
     3    13     3    1
     4     3    11   ar
     5     3     4   ar
     6     4     5   ar
     7     5     6   ar
     8     5     1    1
     9     6    10   ar
    10     6     7   ar
    11     7     8   ar
    12     8     9   ar
    13     9    10   ar
    14     9    15    1
    15    10    11   ar
    16    15    16    1
    17    15    17    1
    18     1     2    2
    19     1    18    1
    20    18    19    1
    21    19    20    1
    22    20    24   ar
    23    20    21   ar
    24    21    22   ar
    25    22    23   ar
    26    23    24   ar
    27    23    25    1
    28    25    30   ar
    29    25    26   ar
    30    26    27   ar
    31    27    28   ar
    32    28    29   ar
    33    28    33    1
    34    29    30   ar
    35    30    31    1
    36    31    32    1
    37    33    34    1
@<TRIPOS>MOLECULE
ZINC22533486
 32 35 0 0 0
SMALL
GASTEIGER

@<TRIPOS>ATOM
      1 S          22.5390   37.9089   28.8890 S.3     1  UNL1       -0.0689
      2 C          23.2229   39.4793   28.4763 C.ar    1  UNL1        0.1746
      3 N          22.5272   40.5734   28.7112 N.ar    1  UNL1       -0.2157
      4 C          23.0168   41.7699   28.4106 C.ar    1  UNL1        0.1171
      5 C          24.2895   41.9324   27.8313 C.ar    1  UNL1        0.0766
      6 C          24.6710   43.3090   27.5668 C.ar    1  UNL1       -0.0094
      7 C          23.8192   44.2965   27.8796 C.ar    1  UNL1        0.0328
      8 S          22.4177   43.4332   28.5643 S.2     1  UNL1       -0.0676
      9 C          25.0208   40.7273   27.5877 C.ar    1  UNL1        0.2642
     10 O          26.1323   40.7697   27.0890 O.2     1  UNL1       -0.2669
     11 N          24.4660   39.5463   27.9166 N.ar    1  UNL1       -0.2714
     12 C          26.0084   43.6238   26.9475 C.3     1  UNL1        0.0231
     13 C          27.1300   44.0803   27.8826 C.3     1  UNL1        0.0047
     14 C          26.4591   45.0858   26.9447 C.3     1  UNL1        0.0047
     15 C          25.2078   38.3086   27.6638 C.3     1  UNL1        0.1374
     16 C          25.0049   37.8849   26.2318 C.2     1  UNL1       -0.0016
     17 C          25.5489   36.7768   25.7934 C.2     1  UNL1       -0.0029
     18 C          21.5653   38.3631   30.3456 C.3     1  UNL1        0.1339
     19 C          20.0976   38.2927   30.0107 C.2     1  UNL1        0.1844
     20 O          19.7415   37.8684   28.9316 O.2     1  UNL1       -0.2904
     21 C          18.5650   39.6824   33.1383 C.ar    1  UNL1        0.1727
     22 C          19.5087   39.2660   32.2211 C.ar    1  UNL1        0.0429
     23 C          19.0986   38.7377   30.9908 C.ar    1  UNL1        0.0388
     24 C          17.7334   38.6403   30.6956 C.ar    1  UNL1        0.0062
     25 C          16.7989   39.0520   31.6190 C.ar    1  UNL1        0.0403
     26 C          17.2067   39.5763   32.8392 C.ar    1  UNL1        0.1779
     27 C          19.3352   41.5746   34.3559 C.3     1  UNL1        0.2526
     28 O          18.9595   40.1961   34.3342 O.3     1  UNL1       -0.4684
     29 O          16.2806   39.9863   33.7430 O.3     1  UNL1       -0.4205
     30 C          15.5245   41.1532   33.4134 C.3     1  UNL1        0.5087
     31 F          15.1515   41.8145   34.5885 F       1  UNL1       -0.1550
     32 F          16.3039   42.0066   32.6252 F       1  UNL1       -0.1550
@<TRIPOS>BOND
     1    27    28    1
     2    28    21    1
     3    21    26   ar
     4    21    22   ar
     5    22    23   ar
     6    23    24   ar
     7    23    19    1
     8    24    25   ar
     9    25    26   ar
    10    26    29    1
    11    29    30    1
    12    30    31    1
    13    30    32    1
    14    19    20    2
    15    19    18    1
    16    18     1    1
    17     1     2    1
    18     2    11   ar
    19     2     3   ar
    20     3     4   ar
    21     4     8   ar
    22     4     5   ar
    23     5     6   ar
    24     5     9   ar
    25     6     7   ar
    26     6    12    1
    27     7     8   ar
    28    12    14    1
    29    12    13    1
    30    13    14    1
    31     9    10    2
    32     9    11   ar
    33    11    15    1
    34    15    16    1
    35    16    17    2
@<TRIPOS>MOLECULE
ZINC03271639
 34 37 0 0 0
SMALL
GASTEIGER

@<TRIPOS>ATOM
      1 N          22.8690   40.1234   28.2595 N.ar    1  UNL1       -0.2756
      2 C          22.4459   41.4040   28.3729 C.ar    1  UNL1        0.2637
      3 O          21.2627   41.6851   28.3199 O.2     1  UNL1       -0.2669
      4 C          23.4683   42.4420   28.5618 C.ar    1  UNL1        0.0739
      5 C          23.1350   43.7896   28.6896 C.ar    1  UNL1        0.0063
      6 C          24.1265   44.7152   28.8642 C.ar    1  UNL1        0.0003
      7 C          25.4591   44.3268   28.9158 C.ar    1  UNL1        0.0015
      8 C          25.8138   43.0131   28.7930 C.ar    1  UNL1        0.0193
      9 C          24.8233   42.0428   28.6134 C.ar    1  UNL1        0.0880
     10 N          25.1286   40.7351   28.4932 N.ar    1  UNL1       -0.2224
     11 C          24.2007   39.8265   28.3204 C.ar    1  UNL1        0.1739
     12 C          21.8919   39.0485   28.0696 C.3     1  UNL1        0.1136
     13 C          21.3832   38.5750   29.4327 C.3     1  UNL1        0.0567
     14 C          19.8642   38.7464   29.4978 C.3     1  UNL1        0.1442
     15 O          19.3380   37.9349   30.5497 O.3     1  UNL1       -0.3537
     16 C          19.2749   38.9746   32.7304 C.3     1  UNL1        0.0346
     17 C          18.4913   38.6400   31.4597 C.3     1  UNL1        0.1422
     18 S          24.6933   38.1417   28.1667 S.3     1  UNL1       -0.0689
     19 C          25.6624   37.9580   29.6844 C.3     1  UNL1        0.1339
     20 C          26.9767   37.2939   29.3639 C.2     1  UNL1        0.1853
     21 O          27.9984   37.6797   29.8972 O.2     1  UNL1       -0.2904
     22 C          27.0208   36.2311   28.4507 C.2     1  UNL1        0.0490
     23 C          27.0183   34.9517   28.8990 C.2     1  UNL1        0.0347
     24 C          26.9595   34.5027   30.3436 C.3     1  UNL1        0.0516
     25 C          26.9771   32.9936   30.2626 C.ar    1  UNL1       -0.0042
     26 C          26.9440   32.0074   31.2235 C.ar    1  UNL1       -0.0027
     27 C          26.9720   30.6759   30.8480 C.ar    1  UNL1       -0.0002
     28 C          27.0335   30.3400   29.5076 C.ar    1  UNL1        0.0013
     29 C          27.0672   31.3251   28.5430 C.ar    1  UNL1        0.0145
     30 C          27.0389   32.6691   28.9134 C.ar    1  UNL1        0.0477
     31 N          27.0620   33.8262   28.1366 N.pl3   1  UNL1       -0.2884
     32 C          27.1258   33.8297   26.6730 C.3     1  UNL1        0.1170
     33 C          28.1799   35.0121   31.1129 C.3     1  UNL1        0.0101
     34 C          25.6675   34.9887   31.0035 C.3     1  UNL1        0.0101
@<TRIPOS>BOND
     1    16    17    1
     2    17    15    1
     3    15    14    1
     4    14    13    1
     5    13    12    1
     6    12     1    1
     7     1    11   ar
     8     1     2   ar
     9     2     3    2
    10     2     4   ar
    11     4     9   ar
    12     4     5   ar
    13     5     6   ar
    14     6     7   ar
    15     7     8   ar
    16     8     9   ar
    17     9    10   ar
    18    10    11   ar
    19    11    18    1
    20    18    19    1
    21    19    20    1
    22    20    21    2
    23    20    22    1
    24    22    23    2
    25    23    31    1
    26    23    24    1
    27    24    25    1
    28    24    33    1
    29    24    34    1
    30    25    30   ar
    31    25    26   ar
    32    26    27   ar
    33    27    28   ar
    34    28    29   ar
    35    29    30   ar
    36    30    31    1
    37    31    32    1
@<TRIPOS>MOLECULE
ZINC31838495
 33 37 0 0 0
SMALL
GASTEIGER

@<TRIPOS>ATOM
      1 N          25.0626   39.5845   26.8394 N.ar    1  UNL1       -0.2757
      2 C          25.5150   40.8320   27.0673 C.ar    1  UNL1        0.2639
      3 O          26.6718   41.1261   26.8194 O.2     1  UNL1       -0.2669
      4 C          24.6169   41.8064   27.6053 C.ar    1  UNL1        0.0762
      5 C          24.8979   43.2148   27.9300 C.ar    1  UNL1       -0.0136
      6 C          23.8820   43.9373   28.4282 C.ar    1  UNL1        0.0049
      7 S          22.5075   42.8114   28.4998 S.2     1  UNL1       -0.0725
      8 C          23.3090   41.3671   27.8546 C.ar    1  UNL1        0.1168
      9 N          22.9241   40.1197   27.6082 N.ar    1  UNL1       -0.2158
     10 C          23.7706   39.2397   27.1123 C.ar    1  UNL1        0.1744
     11 C          24.2837   45.3588   28.7176 C.3     1  UNL1        0.0330
     12 C          25.5945   45.5598   27.9257 C.3     1  UNL1        0.0099
     13 C          26.1313   44.1177   27.8380 C.3     1  UNL1        0.0271
     14 C          25.9742   38.5786   26.2888 C.3     1  UNL1        0.1110
     15 C          26.9841   38.1643   27.3608 C.3     1  UNL1        0.0247
     16 C          26.4570   36.9401   28.1121 C.3     1  UNL1        0.0020
     17 C          26.5938   37.1684   29.6188 C.3     1  UNL1        0.0001
     18 C          24.2465   36.9500   30.4463 C.3     1  UNL1        0.0000
     19 C          25.3734   37.9358   30.1312 C.3     1  UNL1        0.0000
     20 S          23.2265   37.5935   26.7976 S.3     1  UNL1       -0.0674
     21 C          21.4677   37.8962   26.4953 C.3     1  UNL1        0.1502
     22 C          20.7071   37.7740   27.7905 C.2     1  UNL1        0.2409
     23 O          20.4340   36.6781   28.2322 O.2     1  UNL1       -0.2737
     24 N          20.3306   38.8826   28.4580 N.am    1  UNL1       -0.2371
     25 H          20.5523   39.7723   28.0994 H       1  UNL1        0.1593
     26 C          19.6305   38.7701   29.6503 C.ar    1  UNL1        0.3143
     27 N          18.3655   38.4571   29.7815 N.ar    1  UNL1       -0.0923
     28 N          18.0569   38.4467   31.0304 N.ar    1  UNL1       -0.1103
     29 C          19.1048   38.7504   31.7398 C.ar    1  UNL1        0.2273
     30 O          20.1266   38.9567   30.8873 O.2     1  UNL1       -0.4085
     31 C          19.1654   38.8473   33.2424 C.3     1  UNL1        0.0783
     32 C          19.0551   40.2404   33.8655 C.3     1  UNL1        0.0098
     33 C          20.3993   39.5097   33.8584 C.3     1  UNL1        0.0098
@<TRIPOS>BOND
     1    18    19    1
     2    19    17    1
     3    17    16    1
     4    16    15    1
     5    15    14    1
     6    14     1    1
     7     1    10   ar
     8     1     2   ar
     9     2     3    2
    10     2     4   ar
    11     4     8   ar
    12     4     5   ar
    13     5    13    1
    14     5     6   ar
    15     6     7   ar
    16     6    11    1
    17     7     8   ar
    18     8     9   ar
    19     9    10   ar
    20    10    20    1
    21    20    21    1
    22    21    22    1
    23    22    23    2
    24    22    24   am
    25    24    26    1
    26    26    30   ar
    27    26    27   ar
    28    27    28   ar
    29    28    29   ar
    30    29    30   ar
    31    29    31    1
    32    31    33    1
    33    31    32    1
    34    32    33    1
    35    11    12    1
    36    12    13    1
    37    24    25    1
@<TRIPOS>MOLECULE
ZINC23582212
 33 35 0 0 0
SMALL
GASTEIGER

@<TRIPOS>ATOM
      1 C          23.3387   39.5160   28.1120 C.ar    1  UNL1        0.1725
      2 N          22.1143   39.7843   28.5217 N.ar    1  UNL1       -0.2241
      3 C          21.5051   39.0163   29.4033 C.ar    1  UNL1        0.1112
      4 C          22.1669   37.9359   29.8856 C.ar    1  UNL1        0.0566
      5 S          23.7137   38.0726   29.0015 S.2     1  UNL1       -0.0505
      6 C          25.0154   40.5568   24.9156 C.3     1  UNL1        0.0956
      7 C          24.0819   39.8853   25.8896 C.2     1  UNL1        0.2350
      8 O          23.2911   39.0539   25.4967 O.2     1  UNL1       -0.2741
      9 N          24.1259   40.2085   27.1973 N.am    1  UNL1       -0.2169
     10 C          24.9640   41.2417   27.6355 C.ar    1  UNL1        0.0599
     11 C          26.3434   41.0924   27.5733 C.ar    1  UNL1        0.0153
     12 C          27.1671   42.1126   28.0065 C.ar    1  UNL1        0.0012
     13 C          26.6197   43.2822   28.5015 C.ar    1  UNL1        0.0039
     14 C          25.2469   43.4317   28.5700 C.ar    1  UNL1        0.0727
     15 C          24.4176   42.4169   28.1333 C.ar    1  UNL1        0.0191
     16 C          24.6547   44.7052   29.1162 C.3     1  UNL1        0.4186
     17 F          25.1806   45.7996   28.4213 F       1  UNL1       -0.1659
     18 F          23.2647   44.6778   28.9598 F       1  UNL1       -0.1659
     19 F          24.9688   44.8206   30.4745 F       1  UNL1       -0.1659
     20 C          20.1054   39.3321   29.8640 C.3     1  UNL1        0.2548
     21 O          19.7672   38.4893   30.9970 O.3     1  UNL1       -0.4387
     22 C          19.0016   39.0381   31.9604 C.2     1  UNL1        0.3416
     23 O          19.5209   39.5320   32.9412 O.2     1  UNL1       -0.2449
     24 C          17.5312   39.0391   31.8238 C.ar    1  UNL1        0.0757
     25 C          16.9423   38.6905   30.6053 C.ar    1  UNL1        0.0065
     26 C          15.5717   38.6874   30.4794 C.ar    1  UNL1        0.0019
     27 C          14.7694   39.0425   31.5668 C.ar    1  UNL1        0.0224
     28 C          15.3581   39.3958   32.7837 C.ar    1  UNL1        0.0019
     29 C          16.7286   39.3943   32.9113 C.ar    1  UNL1        0.0065
     30 C          13.2996   39.0441   31.4301 C.2     1  UNL1        0.1400
     31 N          12.7186   38.1622   30.6834 N.2     1  UNL1       -0.0813
     32 O          11.3087   38.1637   30.5523 O.2     1  UNL1       -0.3730
     33 C          10.7151   39.4579   30.6739 C.3     1  UNL1        0.2885
@<TRIPOS>BOND
     1     6     7    1
     2     7     8    2
     3     7     9   am
     4     9    10    1
     5     9     1    1
     6    10    15   ar
     7    10    11   ar
     8    11    12   ar
     9    12    13   ar
    10    13    14   ar
    11    14    15   ar
    12    14    16    1
    13    16    17    1
    14    16    18    1
    15    16    19    1
    16     1     5   ar
    17     1     2   ar
    18     2     3   ar
    19     3     4   ar
    20     3    20    1
    21     4     5   ar
    22    20    21    1
    23    21    22    1
    24    22    23    2
    25    22    24    1
    26    24    29   ar
    27    24    25   ar
    28    25    26   ar
    29    26    27   ar
    30    27    28   ar
    31    27    30    1
    32    28    29   ar
    33    30    31    2
    34    31    32    1
    35    32    33    1
@<TRIPOS>MOLECULE
ZINC20169014
 35 37 0 0 0
SMALL
GASTEIGER

@<TRIPOS>ATOM
      1 C          24.1142   47.2317   27.7205 C.2     1  UNL1        0.0524
      2 C          24.8869   47.7199   26.6776 C.2     1  UNL1        0.1249
      3 C          23.9439   43.7330   28.3474 C.ar    1  UNL1        0.1453
      4 C          24.9995   44.0594   29.1727 C.ar    1  UNL1        0.0406
      5 C          25.2069   45.4326   29.0464 C.ar    1  UNL1        0.0406
      6 C          24.2639   45.8987   28.1422 C.ar    1  UNL1        0.1462
      7 O          23.5186   44.8505   27.7328 O.2     1  UNL1       -0.4535
      8 C          22.3210   39.8470   27.8213 C.ar    1  UNL1        0.0756
      9 C          23.5786   40.1563   27.2948 C.ar    1  UNL1        0.0065
     10 C          24.1032   41.4115   27.4645 C.ar    1  UNL1        0.0032
     11 C          23.3800   42.3827   28.1646 C.ar    1  UNL1        0.0346
     12 C          22.1244   42.0711   28.6963 C.ar    1  UNL1        0.0032
     13 C          21.5981   40.8174   28.5216 C.ar    1  UNL1        0.0065
     14 C          21.7566   38.4954   27.6383 C.2     1  UNL1        0.3412
     15 O          20.6957   38.3528   27.0640 O.2     1  UNL1       -0.2449
     16 O          22.4182   37.4198   28.1084 O.3     1  UNL1       -0.4454
     17 C          23.8751   37.5081   30.0577 C.3     1  UNL1        0.0513
     18 C          22.4558   37.2469   29.5495 C.3     1  UNL1        0.2089
     19 C          24.7305   49.1117   26.2373 C.2     1  UNL1        0.2596
     20 O          25.3829   49.5300   25.2991 O.2     1  UNL1       -0.2691
     21 N          23.8643   49.9260   26.8722 N.am    1  UNL1       -0.2747
     22 H          23.3365   49.5876   27.6312 H       1  UNL1        0.1557
     23 C          23.7167   51.2385   26.4568 C.ar    1  UNL1        0.0872
     24 C          22.6732   51.8030   25.7299 C.ar    1  UNL1        0.0958
     25 C          22.7769   53.2127   25.4348 C.ar    1  UNL1        0.0152
     26 C          23.8732   53.8538   25.8771 C.ar    1  UNL1        0.0369
     27 S          24.7897   52.5738   26.7093 S.2     1  UNL1       -0.0715
     28 C          21.5252   51.0081   25.2895 C.2     1  UNL1        0.3428
     29 O          21.0461   51.1911   24.1865 O.2     1  UNL1       -0.2448
     30 O          20.9990   50.0729   26.1069 O.3     1  UNL1       -0.4492
     31 C          20.1906   50.5466   27.2161 C.3     1  UNL1        0.1694
     32 C          18.7088   50.4306   26.8533 C.3     1  UNL1        0.0473
     33 C          20.4799   49.6989   28.4564 C.3     1  UNL1        0.0473
     34 C          25.8372   46.8666   26.0302 C.1     1  UNL1        0.1051
     35 N          26.5913   46.1897   25.5165 N.1     1  UNL1       -0.1907
@<TRIPOS>BOND
     1    17    18    1
     2    18    16    1
     3    16    14    1
     4    14    15    2
     5    14     8    1
     6     8    13   ar
     7     8     9   ar
     8     9    10   ar
     9    10    11   ar
    10    11    12   ar
    11    11     3    1
    12    12    13   ar
    13     3     7   ar
    14     3     4   ar
    15     4     5   ar
    16     5     6   ar
    17     6     7   ar
    18     6     1    1
    19     1     2    2
    20     2    34    1
    21     2    19    1
    22    34    35    3
    23    19    20    2
    24    19    21   am
    25    21    23    1
    26    23    27   ar
    27    23    24   ar
    28    24    25   ar
    29    24    28    1
    30    25    26   ar
    31    26    27   ar
    32    28    29    2
    33    28    30    1
    34    30    31    1
    35    31    32    1
    36    31    33    1
    37    21    22    1
@<TRIPOS>MOLECULE
ZINC10114312
 34 36 0 0 0
SMALL
GASTEIGER

@<TRIPOS>ATOM
      1 N          24.7152   40.3217   25.8408 N.ar    1  UNL1       -0.2892
      2 C          24.7678   40.4989   24.5299 C.ar    1  UNL1        0.2672
      3 O          23.9392   40.0200   23.7773 O.2     1  UNL1       -0.2664
      4 C          25.8906   41.3181   24.0414 C.ar    1  UNL1        0.0870
      5 C          26.2103   41.6742   22.7694 C.2     1  UNL1        0.0144
      6 S          26.7172   41.7176   25.5732 S.2     1  UNL1       -0.0641
      7 C          25.6585   40.8776   26.6597 C.ar    1  UNL1        0.1056
      8 C          25.7490   40.7888   28.0549 C.2     1  UNL1        0.1292
      9 C          25.4769   41.0930   21.6381 C.ar    1  UNL1        0.0403
     10 C          24.3743   41.6704   20.9652 C.ar    1  UNL1        0.1216
     11 N          24.0048   40.8521   20.0189 N.ar    1  UNL1       -0.1676
     12 N          24.8324   39.7243   20.0432 N.ar    1  UNL1       -0.2473
     13 C          25.7302   39.8745   21.0330 C.ar    1  UNL1        0.0967
     14 C          24.7371   38.5733   19.1419 C.3     1  UNL1        0.1538
     15 C          26.8734   41.3555   28.7370 C.1     1  UNL1        0.1057
     16 N          27.7652   41.8051   29.2782 N.1     1  UNL1       -0.1907
     17 C          24.7281   40.1380   28.7912 C.2     1  UNL1        0.2070
     18 O          23.6319   40.6582   28.9037 O.2     1  UNL1       -0.2858
     19 C          24.9926   38.8285   29.4224 C.ar    1  UNL1        0.0399
     20 C          23.9650   38.1478   30.0800 C.ar    1  UNL1        0.0063
     21 C          24.2143   36.9252   30.6631 C.ar    1  UNL1        0.0370
     22 C          25.4887   36.3735   30.6070 C.ar    1  UNL1        0.1387
     23 C          26.5149   37.0501   29.9583 C.ar    1  UNL1        0.0370
     24 C          26.2722   38.2706   29.3683 C.ar    1  UNL1        0.0063
     25 O          25.7319   35.1710   31.1878 O.3     1  UNL1       -0.4714
     26 C          25.5548   35.0865   32.6032 C.3     1  UNL1        0.2525
     27 C          23.6340   39.5211   26.4206 C.3     1  UNL1        0.1095
     28 C          23.6262   38.1328   25.7778 C.3     1  UNL1        0.0227
     29 C          24.6299   37.2311   26.4992 C.3     1  UNL1        0.0019
     30 C          25.8777   37.0598   25.6305 C.3     1  UNL1        0.0001
     31 C          22.2254   37.5274   25.8884 C.3     1  UNL1        0.0019
     32 C          21.4619   38.2124   27.0236 C.3     1  UNL1        0.0001
     33 C          20.5248   37.8978   29.3182 C.3     1  UNL1        0.0000
     34 C          21.1284   37.1845   28.1067 C.3     1  UNL1        0.0000
@<TRIPOS>BOND
     1    33    34    1
     2    34    32    1
     3    32    31    1
     4    31    28    1
     5    28    29    1
     6    28    27    1
     7    29    30    1
     8    27     1    1
     9     1     7   ar
    10     1     2   ar
    11     2     3    2
    12     2     4   ar
    13     4     5    2
    14     4     6   ar
    15     5     9    1
    16     9    13   ar
    17     9    10   ar
    18    10    11   ar
    19    11    12   ar
    20    12    13   ar
    21    12    14    1
    22     6     7   ar
    23     7     8    2
    24     8    15    1
    25     8    17    1
    26    15    16    3
    27    17    18    2
    28    17    19    1
    29    19    24   ar
    30    19    20   ar
    31    20    21   ar
    32    21    22   ar
    33    22    23   ar
    34    22    25    1
    35    23    24   ar
    36    25    26    1
@<TRIPOS>MOLECULE
ZINC29304993
 33 36 0 0 0
SMALL
GASTEIGER

@<TRIPOS>ATOM
      1 O          20.4075   39.0244   28.2302 O.3     1  UNL1       -0.4349
      2 C          21.3158   38.4201   27.4377 C.2     1  UNL1        0.3475
      3 O          20.9503   37.6436   26.5766 O.2     1  UNL1       -0.2443
      4 C          22.7462   38.6999   27.6148 C.ar    1  UNL1        0.1026
      5 C          23.5937   38.2129   28.5610 C.ar    1  UNL1       -0.0064
      6 C          24.9424   38.6025   28.5576 C.ar    1  UNL1        0.0342
      7 C          25.9894   38.2213   29.4334 C.ar    1  UNL1        0.0623
      8 N          27.1937   38.7163   29.2518 N.ar    1  UNL1       -0.2350
      9 C          27.4721   39.5640   28.2760 C.ar    1  UNL1        0.1388
     10 N          26.5450   39.9603   27.4255 N.ar    1  UNL1       -0.2242
     11 C          25.3126   39.5143   27.5342 C.ar    1  UNL1        0.1130
     12 S          23.7979   39.7681   26.6463 S.2     1  UNL1       -0.0618
     13 C          25.7246   37.2584   30.5620 C.3     1  UNL1        0.0522
     14 C          23.0872   37.2537   29.6070 C.3     1  UNL1        0.0319
     15 C          28.8776   40.0881   28.1325 C.3     1  UNL1        0.0586
     16 C          29.2780   40.6745   26.7772 C.3     1  UNL1        0.0080
     17 C          29.8293   39.3165   27.2160 C.3     1  UNL1        0.0080
     18 C          19.6948   38.1839   29.1757 C.3     1  UNL1        0.2933
     19 N          18.4752   38.8630   31.2178 N.am    1  UNL1       -0.2545
     20 C          19.6225   38.8793   30.5108 C.2     1  UNL1        0.2740
     21 O          20.5967   39.4537   30.9489 O.2     1  UNL1       -0.2705
     22 C          15.7761   41.5881   34.2936 C.3     1  UNL1        0.0311
     23 C          17.0793   40.9300   33.9195 C.ar    1  UNL1       -0.0209
     24 C          18.1760   41.0459   34.7537 C.ar    1  UNL1       -0.0084
     25 C          19.3720   40.4391   34.4165 C.ar    1  UNL1       -0.0209
     26 C          19.4745   39.7150   33.2450 C.ar    1  UNL1        0.0106
     27 C          18.3747   39.5963   32.4053 C.ar    1  UNL1        0.0533
     28 C          17.1751   40.2068   32.7467 C.ar    1  UNL1        0.0106
     29 C          20.5649   40.5684   35.3283 C.3     1  UNL1        0.0311
     30 C          17.3333   38.0777   30.7431 C.3     1  UNL1        0.1145
     31 C          16.3943   38.9783   29.9379 C.3     1  UNL1        0.1272
     32 C          15.0812   38.3260   29.8072 C.1     1  UNL1        0.0750
     33 N          14.0678   37.8227   29.7063 N.1     1  UNL1       -0.1958
@<TRIPOS>BOND
     1    22    23    1
     2    23    28   ar
     3    23    24   ar
     4    24    25   ar
     5    25    26   ar
     6    25    29    1
     7    26    27   ar
     8    27    28   ar
     9    27    19    1
    10    19    30    1
    11    19    20   am
    12    30    31    1
    13    31    32    1
    14    32    33    3
    15    20    21    2
    16    20    18    1
    17    18     1    1
    18     1     2    1
    19     2     3    2
    20     2     4    1
    21     4    12   ar
    22     4     5   ar
    23     5     6   ar
    24     5    14    1
    25     6    11   ar
    26     6     7   ar
    27     7     8   ar
    28     7    13    1
    29     8     9   ar
    30     9    10   ar
    31     9    15    1
    32    10    11   ar
    33    11    12   ar
    34    15    17    1
    35    15    16    1
    36    16    17    1
@<TRIPOS>MOLECULE
ZINC26822083
 33 35 0 0 0
SMALL
GASTEIGER

@<TRIPOS>ATOM
      1 C          21.5635   38.1670   28.9256 C.3     1  UNL1        0.2447
      2 C          21.1488   37.1636   27.8475 C.3     1  UNL1        0.0575
      3 C          20.3320   38.7599   29.5604 C.2     1  UNL1        0.2668
      4 O          19.9940   39.8920   29.2868 O.2     1  UNL1       -0.2709
      5 N          19.6063   38.0319   30.4320 N.am    1  UNL1       -0.2759
      6 H          19.8807   37.1129   30.6540 H       1  UNL1        0.1554
      7 C          18.4735   38.5771   31.0157 C.ar    1  UNL1        0.0864
      8 C          18.3624   39.2386   32.2342 C.ar    1  UNL1        0.0915
      9 C          17.0469   39.7082   32.5997 C.ar    1  UNL1       -0.0119
     10 C          16.0461   39.4666   31.7345 C.ar    1  UNL1        0.0051
     11 S          16.8548   38.6063   30.4015 S.2     1  UNL1       -0.0767
     12 C          14.5915   39.8398   31.8598 C.3     1  UNL1        0.0379
     13 C          16.8056   40.4384   33.8956 C.3     1  UNL1        0.0315
     14 C          19.5222   39.4481   33.1034 C.2     1  UNL1        0.3427
     15 O          20.3796   40.2522   32.7903 O.2     1  UNL1       -0.2448
     16 O          19.6397   38.7495   34.2511 O.3     1  UNL1       -0.4413
     17 C          20.1173   39.4719   35.4166 C.3     1  UNL1        0.2560
     18 O          22.3523   37.4899   29.9393 O.3     1  UNL1       -0.4397
     19 C          23.6569   37.8191   30.0206 C.2     1  UNL1        0.3427
     20 O          24.0609   38.8365   29.4925 O.2     1  UNL1       -0.2448
     21 C          25.9697   35.2035   33.7401 C.3     1  UNL1        0.0504
     22 C          25.5988   35.7988   32.4062 C.ar    1  UNL1        0.0431
     23 C          24.5606   36.6214   32.1793 C.ar    1  UNL1        0.0207
     24 C          24.5916   36.9469   30.7485 C.ar    1  UNL1        0.0888
     25 C          25.6611   36.2720   30.2264 C.ar    1  UNL1        0.0491
     26 N          26.2603   35.5852   31.2286 N.ar    1  UNL1       -0.2963
     27 C          26.0980   36.2900   28.7843 C.3     1  UNL1        0.0506
     28 C          27.3911   34.7754   31.0804 C.ar    1  UNL1        0.1888
     29 C          27.4149   33.4033   30.7170 C.ar    1  UNL1        0.0763
     30 C          28.7309   33.0900   30.7113 C.ar    1  UNL1        0.1564
     31 O          29.3918   34.2071   31.0473 O.2     1  UNL1       -0.3563
     32 N          28.6377   35.1317   31.2432 N.ar    1  UNL1       -0.0592
     33 C          29.3358   31.7475   30.3905 C.3     1  UNL1        0.0754
@<TRIPOS>BOND
     1    21    22    1
     2    22    26   ar
     3    22    23   ar
     4    23    24   ar
     5    24    25   ar
     6    24    19    1
     7    25    26   ar
     8    25    27    1
     9    26    28    1
    10    28    32   ar
    11    28    29   ar
    12    29    30   ar
    13    30    31   ar
    14    30    33    1
    15    31    32   ar
    16    19    20    2
    17    19    18    1
    18    18     1    1
    19     1     2    1
    20     1     3    1
    21     3     4    2
    22     3     5   am
    23     5     7    1
    24     7    11   ar
    25     7     8   ar
    26     8     9   ar
    27     8    14    1
    28     9    10   ar
    29     9    13    1
    30    10    11   ar
    31    10    12    1
    32    14    15    2
    33    14    16    1
    34    16    17    1
    35     5     6    1
@<TRIPOS>MOLECULE
ZINC29871771
 30 33 0 0 0
SMALL
GASTEIGER

@<TRIPOS>ATOM
      1 C          26.8791   35.4161   28.6128 C.ar    1  UNL1        0.1742
      2 N          26.9803   34.7996   27.4528 N.ar    1  UNL1       -0.2158
      3 C          27.0636   33.4763   27.3891 C.ar    1  UNL1        0.1171
      4 C          27.0382   32.6700   28.5428 C.ar    1  UNL1        0.0766
      5 C          27.1348   31.2418   28.2942 C.ar    1  UNL1       -0.0094
      6 C          27.2377   30.8022   27.0314 C.ar    1  UNL1        0.0328
      7 S          27.2120   32.3016   26.0674 S.2     1  UNL1       -0.0676
      8 C          26.9223   33.3669   29.7867 C.ar    1  UNL1        0.2642
      9 O          26.8927   32.7515   30.8387 O.2     1  UNL1       -0.2669
     10 N          26.8467   34.7103   29.7806 N.ar    1  UNL1       -0.2714
     11 C          27.1188   30.2656   29.4422 C.3     1  UNL1        0.0231
     12 C          27.5557   28.8281   29.1532 C.3     1  UNL1        0.0047
     13 C          26.0792   29.1438   29.4012 C.3     1  UNL1        0.0047
     14 S          26.7769   37.1745   28.6567 S.3     1  UNL1       -0.0754
     15 C          25.1104   37.4092   27.9904 C.3     1  UNL1        0.0908
     16 C          25.2006   37.7655   26.5052 C.3     1  UNL1        0.1679
     17 S          23.5381   38.1022   25.8622 S.O2    1  UNL1        0.0092
     18 O          23.6174   38.9301   24.7099 O.2     1  UNL1       -0.1686
     19 O          22.7690   36.9076   25.8443 O.2     1  UNL1       -0.1686
     20 C          19.9161   38.8958   29.5463 C.3     1  UNL1        0.0311
     21 C          21.0939   39.4205   28.7661 C.ar    1  UNL1       -0.0206
     22 C          21.5747   40.6931   29.0124 C.ar    1  UNL1       -0.0045
     23 C          22.6546   41.1744   28.2966 C.ar    1  UNL1       -0.0033
     24 C          23.2541   40.3831   27.3342 C.ar    1  UNL1       -0.0048
     25 C          22.7740   39.1106   27.0886 C.ar    1  UNL1        0.1014
     26 C          21.6908   38.6310   27.8014 C.ar    1  UNL1        0.0138
     27 C          24.4313   40.9082   26.5534 C.3     1  UNL1        0.0324
     28 C          26.7278   35.4292   31.0516 C.3     1  UNL1        0.1374
     29 C          25.2872   35.4326   31.4939 C.2     1  UNL1       -0.0016
     30 C          24.9704   35.8611   32.6907 C.2     1  UNL1       -0.0029
@<TRIPOS>BOND
     1    20    21    1
     2    21    26   ar
     3    21    22   ar
     4    22    23   ar
     5    23    24   ar
     6    24    25   ar
     7    24    27    1
     8    25    26   ar
     9    25    17    1
    10    17    18    2
    11    17    19    2
    12    17    16    1
    13    16    15    1
    14    15    14    1
    15    14     1    1
    16     1    10   ar
    17     1     2   ar
    18     2     3   ar
    19     3     7   ar
    20     3     4   ar
    21     4     5   ar
    22     4     8   ar
    23     5     6   ar
    24     5    11    1
    25     6     7   ar
    26    11    13    1
    27    11    12    1
    28    12    13    1
    29     8     9    2
    30     8    10   ar
    31    10    28    1
    32    28    29    1
    33    29    30    2
@<TRIPOS>MOLECULE
ZINC28446533
 34 37 0 0 0
SMALL
GASTEIGER

@<TRIPOS>ATOM
      1 C          11.2237   36.9136   25.8470 C.3     1  UNL1        0.2776
      2 C          10.0340   37.7726   25.5033 C.2     1  UNL1        0.2335
      3 O           8.9871   37.2543   25.1669 O.2     1  UNL1       -0.2864
      4 C          10.7627   37.9666   22.8626 C.3     1  UNL1        0.2584
      5 N          10.6779   39.3929   23.1861 N.pl3   1  UNL1       -0.1668
      6 C          10.8693   40.4428   22.2953 C.ar    1  UNL1        0.1757
      7 C          11.1751   40.4941   20.9423 C.ar    1  UNL1        0.0439
      8 C          11.3134   41.7155   20.3144 C.ar    1  UNL1        0.0037
      9 C          11.1486   42.8907   21.0284 C.ar    1  UNL1        0.0037
     10 C          10.8447   42.8511   22.3742 C.ar    1  UNL1        0.0439
     11 C          10.7034   41.6280   23.0154 C.ar    1  UNL1        0.1757
     12 N          10.4091   41.2721   24.3266 N.pl3   1  UNL1       -0.1668
     13 C          10.3951   39.9164   24.4070 C.2     1  UNL1        0.2927
     14 C          10.1350   39.1722   25.5719 C.2     1  UNL1        0.1832
     15 C          10.1565   42.2001   25.4318 C.3     1  UNL1        0.2584
     16 C           9.9730   39.8412   26.8277 C.1     1  UNL1        0.1107
     17 N           9.8444   40.3719   27.8238 N.1     1  UNL1       -0.1905
     18 O          11.5772   37.1119   27.2414 O.3     1  UNL1       -0.4399
     19 C          12.8467   37.4595   27.5047 C.2     1  UNL1        0.3179
     20 O          13.6181   37.6624   26.5971 O.2     1  UNL1       -0.2501
     21 C          13.3097   37.5966   28.9322 C.3     1  UNL1        0.1175
     22 C          14.8066   37.9126   28.9546 C.3     1  UNL1        0.0762
     23 C          15.1644   38.5562   30.2695 C.ar    1  UNL1        0.1234
     24 C          14.2877   39.0126   31.1850 C.ar    1  UNL1        0.0361
     25 C          15.0421   39.5300   32.2572 C.ar    1  UNL1        0.0403
     26 C          16.3515   39.3670   31.9293 C.ar    1  UNL1        0.1470
     27 O          16.4104   38.7750   30.7210 O.2     1  UNL1       -0.4577
     28 C          17.5089   39.7691   32.7553 C.ar    1  UNL1        0.0620
     29 C          17.3830   40.8056   33.6816 C.ar    1  UNL1        0.0053
     30 C          18.4671   41.1759   34.4501 C.ar    1  UNL1        0.0002
     31 C          19.6785   40.5227   34.3054 C.ar    1  UNL1        0.0023
     32 C          19.8123   39.4946   33.3900 C.ar    1  UNL1        0.0297
     33 C          18.7334   39.1096   32.6168 C.ar    1  UNL1        0.1430
     34 F          18.8633   38.1018   31.7264 F       1  UNL1       -0.2041
@<TRIPOS>BOND
     1     4     5    1
     2     5    13    1
     3     5     6    1
     4     6    11   ar
     5     6     7   ar
     6     7     8   ar
     7     8     9   ar
     8     9    10   ar
     9    10    11   ar
    10    11    12    1
    11    12    13    1
    12    12    15    1
    13    13    14    2
    14    14    16    1
    15    14     2    1
    16    16    17    3
    17     2     3    2
    18     2     1    1
    19     1    18    1
    20    18    19    1
    21    19    20    2
    22    19    21    1
    23    21    22    1
    24    22    23    1
    25    23    27   ar
    26    23    24   ar
    27    24    25   ar
    28    25    26   ar
    29    26    27   ar
    30    26    28    1
    31    28    33   ar
    32    28    29   ar
    33    29    30   ar
    34    30    31   ar
    35    31    32   ar
    36    32    33   ar
    37    33    34    1
@<TRIPOS>MOLECULE
ZINC14413788
 33 36 0 0 0
SMALL
GASTEIGER

@<TRIPOS>ATOM
      1 C          13.0266   37.5987   29.0351 C.3     1  UNL1        0.0853
      2 C          16.1291   39.6999   32.3639 C.3     1  UNL1        0.0653
      3 C          16.9348   38.7188   31.5094 C.3     1  UNL1        0.0292
      4 C          16.5089   38.8551   30.0441 C.3     1  UNL1        0.0938
      5 N          15.0531   38.6772   29.9563 N.am    1  UNL1       -0.2795
      6 C          14.1873   39.5123   30.7999 C.3     1  UNL1        0.0938
      7 C          14.6395   39.3648   32.2608 C.3     1  UNL1        0.0292
      8 C          14.5218   37.7693   29.1137 C.2     1  UNL1        0.2256
      9 O          15.2472   37.0896   28.4188 O.2     1  UNL1       -0.2749
     10 C          16.5692   39.5926   33.8012 C.2     1  UNL1        0.1727
     11 O          15.7895   39.2094   34.6470 O.2     1  UNL1       -0.2913
     12 C          20.5358   40.6317   34.8870 C.ar    1  UNL1        0.0000
     13 C          20.1944   39.3010   34.7185 C.ar    1  UNL1        0.0001
     14 C          18.9070   38.9552   34.3659 C.ar    1  UNL1        0.0028
     15 C          17.9453   39.9531   34.1782 C.ar    1  UNL1        0.0347
     16 C          18.2996   41.2957   34.3451 C.ar    1  UNL1        0.0028
     17 C          19.5897   41.6251   34.7036 C.ar    1  UNL1        0.0001
     18 C          12.6656   36.8502   27.7506 C.3     1  UNL1        0.0096
     19 C          11.3138   37.3467   27.2338 C.3     1  UNL1        0.0025
     20 C          11.5384   38.4310   26.1778 C.3     1  UNL1        0.0246
     21 C          10.1931   38.8464   25.5792 C.3     1  UNL1        0.1077
     22 N          10.4132   39.4820   24.2778 N.ar    1  UNL1       -0.3103
     23 C          10.4269   40.8300   24.1927 C.ar    1  UNL1        0.2580
     24 O          10.2600   41.5190   25.1806 O.2     1  UNL1       -0.2671
     25 C          10.6498   41.4440   22.8713 C.ar    1  UNL1        0.0340
     26 C          10.6783   42.8260   22.7011 C.ar    1  UNL1        0.0029
     27 C          10.8910   43.3513   21.4437 C.ar    1  UNL1        0.0000
     28 C          11.0749   42.5132   20.3546 C.ar    1  UNL1       -0.0018
     29 C          11.0489   41.1414   20.5100 C.ar    1  UNL1       -0.0238
     30 C          10.8369   40.5950   21.7665 C.ar    1  UNL1       -0.1133
     31 N          10.8040   39.2228   21.9661 N.ar    1  UNL1       -0.6386
     32 C          10.5969   38.7137   23.1927 C.ar    1  UNL1       -0.0162
     33 S          10.5658   37.0121   23.3788 S.2     1  UNL1       -0.0582
@<TRIPOS>UNITY_ATOM_ATTR
31 1
charge -1
@<TRIPOS>BOND
     1    12    17   ar
     2    12    13   ar
     3    13    14   ar
     4    14    15   ar
     5    15    16   ar
     6    15    10    1
     7    16    17   ar
     8    10    11    2
     9    10     2    1
    10     2     7    1
    11     2     3    1
    12     3     4    1
    13     4     5    1
    14     5     6    1
    15     5     8   am
    16     6     7    1
    17     8     9    2
    18     8     1    1
    19     1    18    1
    20    18    19    1
    21    19    20    1
    22    20    21    1
    23    21    22    1
    24    22    32   ar
    25    22    23   ar
    26    23    24    2
    27    23    25   ar
    28    25    30   ar
    29    25    26   ar
    30    26    27   ar
    31    27    28   ar
    32    28    29   ar
    33    29    30   ar
    34    30    31   ar
    35    31    32   ar
    36    32    33    2
@<TRIPOS>MOLECULE
ZINC20960762
 32 36 0 0 0
SMALL
GASTEIGER

@<TRIPOS>ATOM
      1 C          19.0764   38.6584   30.5162 C.2     1  UNL1        0.3596
      2 O          19.6695   37.6190   30.7301 O.2     1  UNL1       -0.2432
      3 C          17.7409   38.8739   31.0906 C.ar    1  UNL1        0.1597
      4 C          16.5348   38.6183   30.4740 C.ar    1  UNL1        0.0471
      5 C          15.5150   38.9640   31.3754 C.ar    1  UNL1        0.1089
      6 N          16.0713   39.4157   32.4835 N.ar    1  UNL1       -0.1644
      7 N          17.4631   39.3720   32.3372 N.ar    1  UNL1       -0.2233
      8 C          18.4043   39.7671   33.2942 C.ar    1  UNL1        0.0830
      9 C          19.2066   38.8180   33.9149 C.ar    1  UNL1        0.0192
     10 C          20.1384   39.2119   34.8548 C.ar    1  UNL1        0.0015
     11 C          20.2652   40.5483   35.1872 C.ar    1  UNL1        0.0001
     12 C          19.4644   41.4952   34.5751 C.ar    1  UNL1        0.0015
     13 C          18.5345   41.1087   33.6300 C.ar    1  UNL1        0.0192
     14 C          14.0622   38.8467   31.1233 C.ar    1  UNL1        0.0488
     15 C          13.0248   39.4922   31.7404 C.ar    1  UNL1        0.0086
     16 C          11.7373   39.2187   31.3317 C.ar    1  UNL1        0.0075
     17 C          11.5370   38.3212   30.3334 C.ar    1  UNL1        0.0355
     18 S          13.2058   37.8323   29.9296 S.2     1  UNL1       -0.0849
     19 O          19.6437   39.6133   29.7520 O.3     1  UNL1       -0.4377
     20 C          20.4327   39.1674   28.6175 C.3     1  UNL1        0.2545
     21 C          24.6210   43.8903   28.2715 C.ar    1  UNL1        0.1110
     22 N          24.8715   42.6251   28.1216 N.ar    1  UNL1       -0.1585
     23 N          23.8686   41.6654   28.2200 N.ar    1  UNL1       -0.1705
     24 C          24.0032   40.3133   28.0839 C.ar    1  UNL1        0.2834
     25 O          25.0991   39.8283   27.8493 O.2     1  UNL1       -0.2650
     26 C          22.8866   39.4870   28.2140 C.ar    1  UNL1        0.0810
     27 C          21.6525   40.0415   28.4794 C.ar    1  UNL1        0.1097
     28 N          21.5567   41.3626   28.6060 N.ar    1  UNL1       -0.2213
     29 C          22.6093   42.1307   28.4825 C.ar    1  UNL1        0.1992
     30 S          22.8629   43.8891   28.5838 S.2     1  UNL1       -0.0321
     31 C          24.7738   46.3513   28.0092 C.3     1  UNL1        0.0073
     32 C          25.5699   45.0589   28.2005 C.3     1  UNL1        0.0545
@<TRIPOS>BOND
     1    31    32    1
     2    32    21    1
     3    21    30   ar
     4    21    22   ar
     5    22    23   ar
     6    23    29   ar
     7    23    24   ar
     8    24    25    2
     9    24    26   ar
    10    26    27   ar
    11    27    28   ar
    12    27    20    1
    13    28    29   ar
    14    29    30   ar
    15    20    19    1
    16    19     1    1
    17     1     2    2
    18     1     3    1
    19     3     7   ar
    20     3     4   ar
    21     4     5   ar
    22     5     6   ar
    23     5    14    1
    24     6     7   ar
    25     7     8    1
    26     8    13   ar
    27     8     9   ar
    28     9    10   ar
    29    10    11   ar
    30    11    12   ar
    31    12    13   ar
    32    14    18   ar
    33    14    15   ar
    34    15    16   ar
    35    16    17   ar
    36    17    18   ar
@<TRIPOS>MOLECULE
ZINC08899175
 34 37 0 0 0
SMALL
GASTEIGER

@<TRIPOS>ATOM
      1 N          24.9208   37.9103   27.8239 N.ar    1  UNL1       -0.2119
      2 C          25.5469   37.2511   26.8321 C.ar    1  UNL1        0.2829
      3 O          25.3735   37.5781   25.6706 O.2     1  UNL1       -0.2653
      4 C          26.4084   36.1657   27.1508 C.ar    1  UNL1        0.1345
      5 C          26.5669   35.8455   28.5103 C.ar    1  UNL1        0.0303
      6 C          25.8468   36.6214   29.4595 C.ar    1  UNL1        0.1013
      7 N          25.0726   37.6008   29.0585 N.ar    1  UNL1       -0.1665
      8 C          25.9719   36.3227   30.9064 C.ar    1  UNL1        0.0193
      9 C          24.9706   35.6088   31.5626 C.ar    1  UNL1        0.0016
     10 C          25.0950   35.3291   32.9083 C.ar    1  UNL1        0.0000
     11 C          26.2052   35.7659   33.6084 C.ar    1  UNL1        0.0000
     12 C          27.1996   36.4794   32.9637 C.ar    1  UNL1        0.0000
     13 C          27.0887   36.7599   31.6170 C.ar    1  UNL1        0.0016
     14 C          27.4456   34.7369   28.9375 C.ar    1  UNL1        0.0019
     15 C          26.9081   33.4723   29.1876 C.ar    1  UNL1        0.0001
     16 C          27.7350   32.4405   29.5801 C.ar    1  UNL1        0.0000
     17 C          29.0924   32.6591   29.7379 C.ar    1  UNL1        0.0000
     18 C          29.6307   33.9111   29.4972 C.ar    1  UNL1        0.0000
     19 C          28.8164   34.9503   29.0983 C.ar    1  UNL1        0.0001
     20 C          27.1089   35.4124   26.1014 C.2     1  UNL1        0.3461
     21 O          28.2188   35.7563   25.7443 O.2     1  UNL1       -0.2447
     22 O          26.5204   34.3398   25.5346 O.3     1  UNL1       -0.4412
     23 C          27.2696   33.0961   25.5425 C.3     1  UNL1        0.2560
     24 C          24.0319   39.0229   27.4801 C.3     1  UNL1        0.1571
     25 C          20.3041   38.5539   29.5223 C.ar    1  UNL1        0.0756
     26 C          20.9303   39.8013   29.4833 C.ar    1  UNL1        0.0062
     27 C          22.1327   39.9455   28.8229 C.ar    1  UNL1       -0.0021
     28 C          22.7184   38.8576   28.2000 C.ar    1  UNL1        0.0022
     29 C          22.1007   37.6197   28.2303 C.ar    1  UNL1       -0.0021
     30 C          20.9006   37.4603   28.8917 C.ar    1  UNL1        0.0062
     31 C          19.0165   38.3918   30.2281 C.2     1  UNL1        0.3413
     32 O          17.9772   38.6816   29.6700 O.2     1  UNL1       -0.2449
     33 C          18.9708   38.9056   32.5590 C.3     1  UNL1        0.2560
     34 O          18.9948   37.9225   31.4906 O.3     1  UNL1       -0.4413
@<TRIPOS>BOND
     1    33    34    1
     2    34    31    1
     3    31    32    2
     4    31    25    1
     5    25    30   ar
     6    25    26   ar
     7    26    27   ar
     8    27    28   ar
     9    28    29   ar
    10    28    24    1
    11    29    30   ar
    12    24     1    1
    13     1     7   ar
    14     1     2   ar
    15     2     3    2
    16     2     4   ar
    17     4     5   ar
    18     4    20    1
    19     5     6   ar
    20     5    14    1
    21     6     7   ar
    22     6     8    1
    23     8    13   ar
    24     8     9   ar
    25     9    10   ar
    26    10    11   ar
    27    11    12   ar
    28    12    13   ar
    29    14    19   ar
    30    14    15   ar
    31    15    16   ar
    32    16    17   ar
    33    17    18   ar
    34    18    19   ar
    35    20    21    2
    36    20    22    1
    37    22    23    1
@<TRIPOS>MOLECULE
ZINC00657205
 27 28 0 0 0
SMALL
GASTEIGER

@<TRIPOS>ATOM
      1 C          24.3979   38.9434   28.8839 C.ar    1  UNL1        0.0555
      2 C          25.0643   40.0896   28.4797 C.ar    1  UNL1       -0.0047
      3 C          24.3087   41.1395   28.0303 C.ar    1  UNL1        0.0996
      4 S          22.6449   40.5158   28.1749 S.2     1  UNL1       -0.1056
      5 C          23.0006   38.9382   28.7986 C.ar    1  UNL1       -0.0851
      6 C          26.5678   40.1776   28.5334 C.3     1  UNL1        0.0319
      7 C          25.1321   37.7734   29.3784 C.2     1  UNL1        0.3396
      8 O          25.4945   36.9103   28.6022 O.2     1  UNL1       -0.2450
      9 O          25.4052   37.6553   30.6936 O.3     1  UNL1       -0.4455
     10 C          25.4152   36.1571   32.6134 C.3     1  UNL1        0.0513
     11 C          24.5922   36.7234   31.4545 C.3     1  UNL1        0.2089
     12 C          24.7554   42.4466   27.5509 C.2     1  UNL1        0.3467
     13 O          24.5642   42.7676   26.3931 O.2     1  UNL1       -0.2443
     14 O          25.3795   43.2967   28.3924 O.3     1  UNL1       -0.4523
     15 C          24.6281   44.4212   28.8539 C.3     1  UNL1        0.1366
     16 C          23.1395   44.0679   28.8706 C.3     1  UNL1        0.0437
     17 C          25.0803   44.7912   30.2680 C.3     1  UNL1        0.0437
     18 C          24.8600   45.6085   27.9174 C.3     1  UNL1        0.0437
     19 N          22.1231   37.9275   29.1308 N.am    1  UNL1       -0.6030
     20 C          20.8138   38.0472   28.8342 C.2     1  UNL1        0.1167
     21 O          20.4253   37.8380   27.6998 O.2     1  UNL1       -0.3098
     22 C          19.8585   38.4289   29.8767 C.ar    1  UNL1        0.1615
     23 C          20.1708   38.8101   31.1513 C.ar    1  UNL1        0.0425
     24 C          18.9575   39.0838   31.7995 C.ar    1  UNL1        0.0477
     25 C          17.9680   38.8607   30.9036 C.ar    1  UNL1        0.1791
     26 O          18.5159   38.4714   29.7449 O.2     1  UNL1       -0.4457
     27 BR         16.1175   39.0711   31.2313 Br      1  UNL1       -0.0078
@<TRIPOS>UNITY_ATOM_ATTR
19 1
charge -1
@<TRIPOS>BOND
     1    10    11    1
     2    11     9    1
     3     9     7    1
     4     7     8    2
     5     7     1    1
     6     1     5   ar
     7     1     2   ar
     8     2     3   ar
     9     2     6    1
    10     3     4   ar
    11     3    12    1
    12     4     5   ar
    13     5    19    1
    14    19    20    1
    15    20    21    2
    16    20    22    1
    17    22    26   ar
    18    22    23   ar
    19    23    24   ar
    20    24    25   ar
    21    25    26   ar
    22    25    27    1
    23    12    13    2
    24    12    14    1
    25    14    15    1
    26    15    16    1
    27    15    17    1
    28    15    18    1
@<TRIPOS>MOLECULE
ZINC21382999
 30 32 0 0 0
SMALL
GASTEIGER

@<TRIPOS>ATOM
      1 C          11.3164   37.1375   26.9916 C.2     1  UNL1        0.3416
      2 O          11.0161   36.0237   27.3721 O.2     1  UNL1       -0.2449
      3 C          11.0132   37.5515   25.6063 C.ar    1  UNL1        0.0770
      4 C          10.4867   36.6303   24.6983 C.ar    1  UNL1        0.0065
      5 C          10.2003   37.0250   23.4082 C.ar    1  UNL1        0.0016
      6 C          10.4384   38.3292   23.0113 C.ar    1  UNL1        0.0209
      7 C          10.9653   39.2453   23.9039 C.ar    1  UNL1        0.1340
      8 C          11.2569   38.8639   25.1974 C.ar    1  UNL1        0.0273
      9 S          11.2651   40.9032   23.3877 S.O2    1  UNL1        0.1142
     10 O          10.7499   41.7461   24.4091 O.2     1  UNL1       -0.1419
     11 O          12.6211   40.9583   22.9665 O.2     1  UNL1       -0.1419
     12 O          10.4146   41.1499   22.1499 O.3     1  UNL1       -0.2115
     13 C          11.1492   41.6470   21.0295 C.3     1  UNL1        0.2772
     14 C          11.0080   43.1690   20.9618 C.3     1  UNL1        0.4273
     15 F          10.8338   43.5624   19.6307 F       1  UNL1       -0.1673
     16 F           9.8988   43.5682   21.7152 F       1  UNL1       -0.1673
     17 F          12.1623   43.7677   21.4779 F       1  UNL1       -0.1673
     18 O          11.9259   37.9951   27.8328 O.3     1  UNL1       -0.4403
     19 C          12.0076   37.6035   29.2285 C.3     1  UNL1        0.2377
     20 C          16.1990   40.2264   32.8738 C.ar    1  UNL1        0.0001
     21 C          17.3109   39.6887   32.2287 C.ar    1  UNL1        0.0015
     22 C          17.1696   38.8702   31.1507 C.ar    1  UNL1        0.0191
     23 C          15.8837   38.5577   30.6759 C.ar    1  UNL1        0.0822
     24 C          14.7545   39.1057   31.3334 C.ar    1  UNL1        0.0176
     25 C          14.9382   39.9469   32.4427 C.ar    1  UNL1        0.0015
     26 C          13.4677   38.7919   30.8567 C.ar    1  UNL1        0.0032
     27 C          13.3647   37.9668   29.7736 C.ar    1  UNL1        0.0498
     28 C          14.5167   37.4562   29.1759 C.ar    1  UNL1        0.1378
     29 N          15.7147   37.7558   29.6197 N.ar    1  UNL1       -0.2342
     30 CL         14.3619   36.4034   27.8044 Cl      1  UNL1       -0.0616
@<TRIPOS>BOND
     1    20    25   ar
     2    20    21   ar
     3    21    22   ar
     4    22    23   ar
     5    23    29   ar
     6    23    24   ar
     7    24    25   ar
     8    24    26   ar
     9    26    27   ar
    10    27    28   ar
    11    27    19    1
    12    28    29   ar
    13    28    30    1
    14    19    18    1
    15    18     1    1
    16     1     2    2
    17     1     3    1
    18     3     8   ar
    19     3     4   ar
    20     4     5   ar
    21     5     6   ar
    22     6     7   ar
    23     7     8   ar
    24     7     9    1
    25     9    10    2
    26     9    11    2
    27     9    12    1
    28    12    13    1
    29    13    14    1
    30    14    15    1
    31    14    16    1
    32    14    17    1
@<TRIPOS>MOLECULE
ZINC28621283
 30 32 0 0 0
SMALL
GASTEIGER

@<TRIPOS>ATOM
      1 C          15.6421   39.2857   30.5742 C.2     1  UNL1        0.0091
      2 N          15.6252   38.1632   29.8904 N.2     1  UNL1       -0.2367
      3 O          14.6469   40.1881   30.4174 O.co2   1  UNL1       -0.8592
      4 C          14.6131   37.9107   29.0305 C.ar    1  UNL1        0.1929
      5 N          14.6300   37.8481   27.7022 N.ar    1  UNL1       -0.2193
      6 C          13.5387   37.5827   27.0213 C.ar    1  UNL1        0.1036
      7 C          12.3646   37.3788   27.6746 C.ar    1  UNL1        0.0337
      8 S          12.8913   37.5720   29.3727 S.2     1  UNL1       -0.0512
      9 C          10.9976   37.0689   27.1212 C.3     1  UNL1        0.0618
     10 C          10.7184   37.9640   25.9414 C.ar    1  UNL1       -0.0058
     11 C          10.5886   39.3280   26.1243 C.ar    1  UNL1        0.0083
     12 C          10.3261   40.1490   25.0423 C.ar    1  UNL1        0.0574
     13 C          10.2040   39.6060   23.7754 C.ar    1  UNL1        0.0122
     14 C          10.3346   38.2426   23.5925 C.ar    1  UNL1        0.0120
     15 C          10.5915   37.4207   24.6757 C.ar    1  UNL1        0.0541
     16 CL         10.7549   35.7078   24.4459 Cl      1  UNL1       -0.0826
     17 CL         10.1560   41.8611   25.2731 Cl      1  UNL1       -0.0823
     18 C          17.8843   38.7915   31.4738 C.2     1  UNL1        0.0139
     19 C          16.7428   39.5604   31.5093 C.2     1  UNL1        0.0709
     20 C          20.2871   39.1099   32.3006 C.ar    1  UNL1        0.2205
     21 C          18.9137   38.9606   32.5025 C.ar    1  UNL1        0.0449
     22 C          18.7173   39.0123   33.9079 C.ar    1  UNL1        0.0439
     23 C          19.9297   39.1745   34.4698 C.ar    1  UNL1        0.1799
     24 O          20.8636   39.2359   33.5116 O.2     1  UNL1       -0.4439
     25 C          20.9755   39.1269   31.0082 C.2     1  UNL1        0.3764
     26 O          21.9095   38.3744   30.8067 O.2     1  UNL1       -0.2414
     27 C          20.4984   39.4590   28.7113 C.3     1  UNL1        0.2561
     28 O          20.5735   39.9775   30.0408 O.3     1  UNL1       -0.4392
     29 C          16.6277   40.6277   32.4570 C.1     1  UNL1        0.1007
     30 N          16.5362   41.4745   33.2088 N.1     1  UNL1       -0.1908
@<TRIPOS>UNITY_ATOM_ATTR
3 1
charge -1
@<TRIPOS>BOND
     1    27    28    1
     2    28    25    1
     3    25    26    2
     4    25    20    1
     5    20    24   ar
     6    20    21   ar
     7    21    22   ar
     8    21    18    1
     9    22    23   ar
    10    23    24   ar
    11    18    19    2
    12    19    29    1
    13    19     1    1
    14    29    30    3
    15     1     2    2
    16     1     3    1
    17     2     4    1
    18     4     8   ar
    19     4     5   ar
    20     5     6   ar
    21     6     7   ar
    22     7     8   ar
    23     7     9    1
    24     9    10    1
    25    10    15   ar
    26    10    11   ar
    27    11    12   ar
    28    12    13   ar
    29    12    17    1
    30    13    14   ar
    31    14    15   ar
    32    15    16    1
@<TRIPOS>MOLECULE
ZINC23426533
 34 37 0 0 0
SMALL
GASTEIGER

@<TRIPOS>ATOM
      1 C          24.5131   37.5697   29.9253 C.ar    1  UNL1        0.2405
      2 N          23.2017   37.4699   30.1281 N.ar    1  UNL1       -0.1758
      3 C          22.5835   38.5165   29.5898 C.ar    1  UNL1        0.2555
      4 N          21.2942   38.8674   29.5319 N.ar    1  UNL1       -0.2083
      5 C          20.9127   39.9711   28.9265 C.ar    1  UNL1        0.1036
      6 C          21.8528   40.8086   28.3256 C.ar    1  UNL1        0.0400
      7 C          23.1898   40.4596   28.3769 C.ar    1  UNL1        0.0875
      8 N          23.5418   39.3036   29.0164 N.ar    1  UNL1       -0.1938
      9 N          24.7695   38.6703   29.2480 N.ar    1  UNL1       -0.1270
     10 C          27.0537   32.9070   30.6114 C.2     1  UNL1        0.2252
     11 O          26.5346   32.1224   31.3768 O.2     1  UNL1       -0.2749
     12 N          26.7894   34.2245   30.7148 N.am    1  UNL1       -0.2760
     13 C          27.3278   35.1816   29.7365 C.3     1  UNL1        0.1149
     14 C          26.1669   36.0444   29.2169 C.3     1  UNL1        0.1152
     15 N          25.4659   36.6505   30.3568 N.pl3   1  UNL1       -0.2735
     16 C          24.8574   35.6249   31.2147 C.3     1  UNL1        0.1152
     17 C          25.9596   34.7441   31.8125 C.3     1  UNL1        0.1149
     18 C          27.9945   32.4087   29.5448 C.3     1  UNL1        0.0767
     19 C          29.0422   31.4905   30.1773 C.3     1  UNL1        0.0091
     20 C          28.9795   30.1127   29.5148 C.3     1  UNL1        0.0005
     21 C          27.2042   31.6307   28.4907 C.3     1  UNL1        0.0091
     22 C          27.1095   32.4608   27.2089 C.3     1  UNL1        0.0005
     23 C          26.8192   30.1099   26.4143 C.3     1  UNL1        0.0000
     24 C          27.1886   31.5339   25.9941 C.3     1  UNL1        0.0000
     25 C          24.2173   41.3184   27.7526 C.ar    1  UNL1        0.0178
     26 C          24.5786   41.1225   26.4183 C.ar    1  UNL1        0.0012
     27 C          25.5356   41.9307   25.8404 C.ar    1  UNL1       -0.0042
     28 C          26.1443   42.9271   26.5829 C.ar    1  UNL1       -0.0228
     29 C          25.7945   43.1234   27.9072 C.ar    1  UNL1       -0.0042
     30 C          24.8355   42.3256   28.4961 C.ar    1  UNL1        0.0012
     31 C          27.1934   43.8021   25.9466 C.3     1  UNL1        0.0189
     32 C          27.0932   43.6931   24.4237 C.3     1  UNL1        0.0044
     33 C          26.9706   45.2554   26.3697 C.3     1  UNL1        0.0044
     34 C          28.5815   43.3458   26.4003 C.3     1  UNL1        0.0044
@<TRIPOS>BOND
     1    23    24    1
     2    24    22    1
     3    22    21    1
     4    21    18    1
     5    18    19    1
     6    18    10    1
     7    19    20    1
     8    10    11    2
     9    10    12   am
    10    12    17    1
    11    12    13    1
    12    13    14    1
    13    14    15    1
    14    15    16    1
    15    15     1    1
    16    16    17    1
    17     1     9   ar
    18     1     2   ar
    19     2     3   ar
    20     3     8   ar
    21     3     4   ar
    22     4     5   ar
    23     5     6   ar
    24     6     7   ar
    25     7     8   ar
    26     7    25    1
    27     8     9   ar
    28    25    30   ar
    29    25    26   ar
    30    26    27   ar
    31    27    28   ar
    32    28    29   ar
    33    28    31    1
    34    29    30   ar
    35    31    32    1
    36    31    33    1
    37    31    34    1
@<TRIPOS>MOLECULE
ZINC18802203
 32 35 0 0 0
SMALL
GASTEIGER

@<TRIPOS>ATOM
      1 C          18.3749   38.9697   31.0179 C.ar    1  UNL1        0.1241
      2 C          17.7538   39.3692   32.2092 C.ar    1  UNL1        0.0941
      3 N          16.4414   39.3323   32.2455 N.ar    1  UNL1       -0.2381
      4 C          15.7295   38.9351   31.2033 C.ar    1  UNL1        0.1109
      5 S          16.9472   38.5622   30.0235 S.2     1  UNL1       -0.0601
      6 C          14.2603   38.8344   31.0750 C.ar    1  UNL1        0.0238
      7 C          13.6967   38.0054   30.1036 C.ar    1  UNL1        0.0020
      8 C          12.3248   37.9115   29.9931 C.ar    1  UNL1        0.0001
      9 C          11.5081   38.6459   30.8344 C.ar    1  UNL1        0.0000
     10 C          12.0603   39.4735   31.7959 C.ar    1  UNL1        0.0001
     11 C          13.4306   39.5721   31.9208 C.ar    1  UNL1        0.0020
     12 C          18.5454   39.8094   33.3815 C.ar    1  UNL1        0.0184
     13 C          19.3085   38.8872   34.0973 C.ar    1  UNL1        0.0015
     14 C          20.0471   39.3039   35.1857 C.ar    1  UNL1        0.0000
     15 C          20.0238   40.6318   35.5734 C.ar    1  UNL1        0.0000
     16 C          19.2650   41.5504   34.8703 C.ar    1  UNL1        0.0000
     17 C          18.5259   41.1465   33.7773 C.ar    1  UNL1        0.0015
     18 C          19.7956   38.9049   30.6821 C.2     1  UNL1        0.3492
     19 O          20.4501   37.9272   30.9923 O.2     1  UNL1       -0.2443
     20 O          20.3818   39.9294   30.0280 O.3     1  UNL1       -0.4400
     21 C          20.5302   39.7956   28.6131 C.3     1  UNL1        0.2379
     22 C          21.9838   39.5804   28.2784 C.2     1  UNL1        0.0571
     23 O          22.7847   40.4635   28.4707 O.2     1  UNL1       -0.3286
     24 C          22.4377   38.2633   27.7039 C.2     1  UNL1       -0.0999
     25 C          24.7155   36.2885   31.6962 C.3     1  UNL1        0.0525
     26 C          24.7218   36.8370   30.2926 C.ar    1  UNL1        0.0629
     27 C          25.8744   36.9088   29.5793 C.ar    1  UNL1        0.0485
     28 S          25.2709   37.6087   28.0497 S.2     1  UNL1       -0.1048
     29 C          23.6005   37.7392   28.5065 C.ar    1  UNL1       -0.0497
     30 N          23.6094   37.2587   29.7284 N.ar    1  UNL1       -0.2804
     31 C          21.3291   37.2964   27.7577 C.1     1  UNL1       -0.1066
     32 N          20.4736   36.5502   27.7991 N.1     1  UNL1       -0.2342
@<TRIPOS>UNITY_ATOM_ATTR
24 1
charge -1
@<TRIPOS>BOND
     1    25    26    1
     2    26    30   ar
     3    26    27   ar
     4    27    28   ar
     5    28    29   ar
     6    29    30   ar
     7    29    24    1
     8    24    31    1
     9    24    22    1
    10    31    32    3
    11    22    23    2
    12    22    21    1
    13    21    20    1
    14    20    18    1
    15    18    19    2
    16    18     1    1
    17     1     5   ar
    18     1     2   ar
    19     2     3   ar
    20     2    12    1
    21     3     4   ar
    22     4     5   ar
    23     4     6    1
    24     6    11   ar
    25     6     7   ar
    26     7     8   ar
    27     8     9   ar
    28     9    10   ar
    29    10    11   ar
    30    12    17   ar
    31    12    13   ar
    32    13    14   ar
    33    14    15   ar
    34    15    16   ar
    35    16    17   ar
@<TRIPOS>MOLECULE
ZINC31075185
 33 36 0 0 0
SMALL
GASTEIGER

@<TRIPOS>ATOM
      1 C          23.9731   40.2789   26.9503 C.ar    1  UNL1        0.0341
      2 C          23.9322   39.6374   25.7623 C.ar    1  UNL1        0.0990
      3 N          24.3129   40.5178   24.8001 N.ar    1  UNL1       -0.2285
      4 N          24.6063   41.7385   25.4213 N.ar    1  UNL1       -0.1653
      5 C          24.4033   41.5996   26.7147 C.ar    1  UNL1        0.1001
      6 C          24.5945   42.6507   27.7445 C.ar    1  UNL1        0.0191
      7 C          25.6684   42.5757   28.6292 C.ar    1  UNL1        0.0015
      8 C          25.8444   43.5590   29.5817 C.ar    1  UNL1        0.0000
      9 C          24.9509   44.6115   29.6662 C.ar    1  UNL1        0.0000
     10 C          23.8800   44.6881   28.7940 C.ar    1  UNL1        0.0000
     11 C          23.6974   43.7133   27.8342 C.ar    1  UNL1        0.0015
     12 C          24.4021   40.2498   23.4277 C.ar    1  UNL1        0.0828
     13 C          23.2548   39.9696   22.6975 C.ar    1  UNL1        0.0191
     14 C          23.3455   39.7115   21.3437 C.ar    1  UNL1        0.0015
     15 C          24.5784   39.7208   20.7177 C.ar    1  UNL1        0.0001
     16 C          25.7234   39.9939   21.4433 C.ar    1  UNL1        0.0015
     17 C          25.6388   40.2583   22.7962 C.ar    1  UNL1        0.0191
     18 C          23.6261   39.6852   28.2912 C.3     1  UNL1        0.1252
     19 C          21.4355   40.9657   28.2839 C.3     1  UNL1        0.1153
     20 N          22.1733   39.7150   28.4773 N.3     1  UNL1       -0.1495
     21 S          21.3650   38.3347   28.9062 S.O2    1  UNL1        0.0636
     22 O          20.4146   38.0850   27.8796 O.2     1  UNL1       -0.1528
     23 O          22.3535   37.3836   29.2769 O.2     1  UNL1       -0.1528
     24 C          20.4463   38.7008   30.3645 C.ar    1  UNL1        0.1222
     25 C          19.0780   38.4968   30.3858 C.ar    1  UNL1        0.0201
     26 C          18.3533   38.7767   31.5258 C.ar    1  UNL1        0.0078
     27 C          19.0023   39.2771   32.6563 C.ar    1  UNL1        0.0757
     28 C          20.3826   39.4856   32.6261 C.ar    1  UNL1        0.0078
     29 C          21.0958   39.1964   31.4813 C.ar    1  UNL1        0.0201
     30 C          18.2322   39.5841   33.8789 C.2     1  UNL1        0.3413
     31 O          17.0264   39.4378   33.8900 O.2     1  UNL1       -0.2449
     32 O          18.8671   40.0264   34.9816 O.3     1  UNL1       -0.4413
     33 C          18.9343   41.4644   35.1714 C.3     1  UNL1        0.2560
@<TRIPOS>BOND
     1    19    20    1
     2    20    18    1
     3    20    21    1
     4    18     1    1
     5     1     5   ar
     6     1     2   ar
     7     2     3   ar
     8     3     4   ar
     9     3    12    1
    10     4     5   ar
    11     5     6    1
    12     6    11   ar
    13     6     7   ar
    14     7     8   ar
    15     8     9   ar
    16     9    10   ar
    17    10    11   ar
    18    12    17   ar
    19    12    13   ar
    20    13    14   ar
    21    14    15   ar
    22    15    16   ar
    23    16    17   ar
    24    21    22    2
    25    21    23    2
    26    21    24    1
    27    24    29   ar
    28    24    25   ar
    29    25    26   ar
    30    26    27   ar
    31    27    28   ar
    32    27    30    1
    33    28    29   ar
    34    30    31    2
    35    30    32    1
    36    32    33    1
@<TRIPOS>MOLECULE
ZINC14976400
 32 34 0 0 0
SMALL
GASTEIGER

@<TRIPOS>ATOM
      1 N          21.1883   39.1426   29.5791 N.4     1  UNL1        0.2833
      2 C          20.9128   40.0278   28.4389 C.3     1  UNL1        0.1108
      3 C          21.8432   41.2437   28.4788 C.3     1  UNL1        0.0879
      4 C          23.2748   40.7412   28.6229 C.ar    1  UNL1       -0.0007
      5 C          23.5108   39.4752   29.0421 C.ar    1  UNL1        0.0599
      6 S          25.2735   39.3322   29.0584 S.2     1  UNL1       -0.0660
      7 C          25.6863   40.9268   28.5189 C.ar    1  UNL1        0.1574
      8 C          24.4578   41.5281   28.3398 C.ar    1  UNL1        0.0970
      9 C          22.4807   38.4525   29.4047 C.3     1  UNL1        0.1394
     10 H          21.2475   39.7178   30.4193 H       1  UNL1        0.2075
     11 S          27.2881   41.6137   28.2605 S.O2    1  UNL1        0.0692
     12 O          27.2461   42.9424   28.7625 O.2     1  UNL1       -0.1523
     13 O          28.2230   40.6516   28.7288 O.2     1  UNL1       -0.1523
     14 N          27.5114   41.7330   26.6239 N.3     1  UNL1       -0.1536
     15 C          27.9392   43.0040   26.0338 C.3     1  UNL1        0.1149
     16 C          27.2813   40.5679   25.7663 C.3     1  UNL1        0.0958
     17 C          26.2180   40.9070   24.7197 C.3     1  UNL1        0.0178
     18 C          26.7631   40.6048   23.3224 C.3     1  UNL1        0.0015
     19 C          24.9665   40.0639   24.9724 C.3     1  UNL1        0.0015
     20 C          24.3525   42.9197   27.8774 C.2     1  UNL1        0.3428
     21 O          24.4437   43.1749   26.6923 O.2     1  UNL1       -0.2448
     22 O          24.1550   43.9127   28.7674 O.3     1  UNL1       -0.4413
     23 C          24.4707   45.2612   28.3314 C.3     1  UNL1        0.2560
     24 C          20.0979   38.1772   29.7716 C.3     1  UNL1        0.1332
     25 C          16.5632   40.0812   33.9279 C.3     1  UNL1        0.0307
     26 C          17.4849   39.5816   32.8453 C.ar    1  UNL1       -0.0258
     27 C          16.9610   39.0861   31.6657 C.ar    1  UNL1       -0.0047
     28 C          17.8065   38.6332   30.6705 C.ar    1  UNL1        0.0011
     29 C          19.1760   38.6706   30.8568 C.ar    1  UNL1        0.0323
     30 C          19.6995   39.1610   32.0383 C.ar    1  UNL1       -0.0032
     31 C          18.8538   39.6140   33.0338 C.ar    1  UNL1       -0.0259
     32 C          19.4246   40.1492   34.3217 C.3     1  UNL1        0.0307
@<TRIPOS>UNITY_ATOM_ATTR
1 1
charge 1
@<TRIPOS>BOND
     1    25    26    1
     2    26    31   ar
     3    26    27   ar
     4    27    28   ar
     5    28    29   ar
     6    29    30   ar
     7    29    24    1
     8    30    31   ar
     9    31    32    1
    10    24     1    1
    11     1     9    1
    12     1     2    1
    13     2     3    1
    14     3     4    1
    15     4     8   ar
    16     4     5   ar
    17     5     6   ar
    18     5     9    1
    19     6     7   ar
    20     7     8   ar
    21     7    11    1
    22     8    20    1
    23    20    21    2
    24    20    22    1
    25    22    23    1
    26    11    12    2
    27    11    13    2
    28    11    14    1
    29    14    15    1
    30    14    16    1
    31    16    17    1
    32    17    18    1
    33    17    19    1
    34     1    10    1
@<TRIPOS>MOLECULE
ZINC02610995
 28 30 0 0 0
SMALL
GASTEIGER

@<TRIPOS>ATOM
      1 C          18.9812   39.3930   32.8523 C.ar    1  UNL1        0.1642
      2 N          20.2464   39.7072   32.8451 N.ar    1  UNL1       -0.1310
      3 N          20.7679   39.4201   31.7064 N.ar    1  UNL1       -0.1206
      4 C          19.8584   38.8961   30.9168 C.ar    1  UNL1        0.2131
      5 N          18.6852   38.8676   31.6220 N.ar    1  UNL1       -0.1900
      6 N          17.4429   38.3944   31.1800 N.2     1  UNL1       -0.1606
      7 C          16.4708   39.2263   30.9656 C.2     1  UNL1        0.1206
      8 C          15.1628   38.7281   30.5003 C.ar    1  UNL1        0.0226
      9 C          14.0426   38.8163   31.3302 C.ar    1  UNL1        0.0017
     10 C          12.8213   38.3544   30.8861 C.ar    1  UNL1        0.0018
     11 C          12.7066   37.7937   29.6261 C.ar    1  UNL1        0.0241
     12 C          13.8118   37.7027   28.7990 C.ar    1  UNL1        0.1429
     13 C          15.0384   38.1663   29.2277 C.ar    1  UNL1        0.0257
     14 N          13.6779   37.1069   27.4506 N.pl3   1  UNL1        0.0577
     15 O          13.7424   35.8988   27.3094 O.2     1  UNL1       -0.1261
     16 O          13.5031   37.8247   26.4822 O.2     1  UNL1       -0.1261
     17 C          18.0222   39.5741   34.0005 C.3     1  UNL1        0.0677
     18 C          16.0291   41.0753   34.1280 C.3     1  UNL1        0.0005
     19 C          17.5565   41.0306   34.0510 C.3     1  UNL1        0.0080
     20 S          20.1010   38.3398   29.2626 S.3     1  UNL1       -0.0692
     21 C          20.7308   39.8602   28.5089 C.3     1  UNL1        0.0914
     22 C          22.2371   39.8220   28.4841 C.ar    1  UNL1       -0.0109
     23 C          22.9038   38.6507   28.7917 C.ar    1  UNL1       -0.0029
     24 C          24.2851   38.6138   28.7643 C.ar    1  UNL1        0.0064
     25 C          25.0008   39.7520   28.4393 C.ar    1  UNL1        0.0345
     26 C          24.3335   40.9253   28.1367 C.ar    1  UNL1        0.0064
     27 C          22.9519   40.9597   28.1592 C.ar    1  UNL1       -0.0029
     28 BR         26.8910   39.7041   28.4081 Br      1  UNL1       -0.0490
@<TRIPOS>BOND
     1    18    19    1
     2    19    17    1
     3    17     1    1
     4     1     5   ar
     5     1     2   ar
     6     2     3   ar
     7     3     4   ar
     8     4     5   ar
     9     4    20    1
    10     5     6    1
    11     6     7    2
    12     7     8    1
    13     8    13   ar
    14     8     9   ar
    15     9    10   ar
    16    10    11   ar
    17    11    12   ar
    18    12    13   ar
    19    12    14    1
    20    14    15    2
    21    14    16    2
    22    20    21    1
    23    21    22    1
    24    22    27   ar
    25    22    23   ar
    26    23    24   ar
    27    24    25   ar
    28    25    26   ar
    29    25    28    1
    30    26    27   ar
@<TRIPOS>MOLECULE
ZINC18617206
 34 37 0 0 0
SMALL
GASTEIGER

@<TRIPOS>ATOM
      1 O          13.1636   37.2597   28.7106 O.3     1  UNL1       -0.4353
      2 C          12.3677   36.9104   27.6784 C.2     1  UNL1        0.3419
      3 O          11.9775   35.7629   27.5723 O.2     1  UNL1       -0.2449
      4 C          10.9351   37.6495   25.9040 C.2     1  UNL1        0.0292
      5 C          11.9915   37.8785   26.7149 C.2     1  UNL1        0.0835
      6 N          10.0023   40.5525   23.9626 N.ar    1  UNL1       -0.2257
      7 C          10.3418   39.9966   25.1443 C.ar    1  UNL1        0.1179
      8 C          10.5448   38.6538   24.9047 C.ar    1  UNL1        0.1234
      9 N          10.3180   38.4207   23.5993 N.ar    1  UNL1       -0.1287
     10 N           9.9956   39.5208   23.0139 N.ar    1  UNL1       -0.0635
     11 C           9.6933   41.9637   23.7190 C.3     1  UNL1        0.1556
     12 C          12.1171   43.4207   20.5174 C.ar    1  UNL1       -0.0000
     13 C          10.7427   43.3719   20.3770 C.ar    1  UNL1       -0.0003
     14 C           9.9584   42.9003   21.4130 C.ar    1  UNL1       -0.0023
     15 C          10.5484   42.4775   22.5895 C.ar    1  UNL1        0.0022
     16 C          11.9224   42.5312   22.7318 C.ar    1  UNL1       -0.0023
     17 C          12.7071   42.9979   21.6939 C.ar    1  UNL1       -0.0003
     18 C          14.4693   37.7427   28.3885 C.3     1  UNL1        0.2930
     19 C          15.1398   38.2506   29.6389 C.2     1  UNL1        0.2711
     20 O          14.4703   38.5766   30.5963 O.2     1  UNL1       -0.2707
     21 N          16.4833   38.3423   29.6935 N.am    1  UNL1       -0.2754
     22 H          17.0267   38.0776   28.9164 H       1  UNL1        0.1554
     23 C          17.1007   38.8101   30.8452 C.ar    1  UNL1        0.0899
     24 C          18.4505   38.8172   31.1563 C.ar    1  UNL1        0.0843
     25 C          18.8476   39.3759   32.4409 C.ar    1  UNL1       -0.0088
     26 C          17.8279   39.8192   33.2084 C.ar    1  UNL1        0.0052
     27 S          16.3703   39.5197   32.2461 S.2     1  UNL1       -0.0762
     28 C          17.9064   40.4178   34.5780 C.3     1  UNL1        0.0327
     29 C          18.9832   41.5113   34.5919 C.3     1  UNL1        0.0052
     30 C          20.3181   40.8687   34.9555 C.3     1  UNL1        0.0007
     31 C          20.3827   39.4443   34.4081 C.3     1  UNL1        0.0047
     32 C          20.3027   39.4549   32.8855 C.3     1  UNL1        0.0273
     33 C          19.4229   38.2958   30.2436 C.1     1  UNL1        0.1019
     34 N          20.1944   37.8822   29.5195 N.1     1  UNL1       -0.1908
@<TRIPOS>BOND
     1    12    17   ar
     2    12    13   ar
     3    13    14   ar
     4    14    15   ar
     5    15    16   ar
     6    15    11    1
     7    16    17   ar
     8    11     6    1
     9     6    10   ar
    10     6     7   ar
    11     7     8   ar
    12     8     9   ar
    13     8     4    1
    14     9    10   ar
    15     4     5    2
    16     5     2    1
    17     2     3    2
    18     2     1    1
    19     1    18    1
    20    18    19    1
    21    19    20    2
    22    19    21   am
    23    21    23    1
    24    23    27   ar
    25    23    24   ar
    26    24    25   ar
    27    24    33    1
    28    25    32    1
    29    25    26   ar
    30    26    27   ar
    31    26    28    1
    32    28    29    1
    33    29    30    1
    34    30    31    1
    35    31    32    1
    36    33    34    3
    37    21    22    1
@<TRIPOS>MOLECULE
ZINC10166885
 33 36 0 0 0
SMALL
GASTEIGER

@<TRIPOS>ATOM
      1 C          26.5183   37.3077   29.3257 C.3     1  UNL1        0.1076
      2 C          27.2642   31.5626   27.9142 C.ar    1  UNL1        0.1612
      3 N          27.2735   32.4487   26.9206 N.ar    1  UNL1       -0.2043
      4 C          27.0979   33.6462   27.4090 C.ar    1  UNL1        0.1953
      5 N          26.9665   33.5729   28.7621 N.ar    1  UNL1       -0.2205
      6 N          27.0824   32.1873   29.0466 N.ar    1  UNL1       -0.1495
      7 C          26.7784   34.7528   29.4410 C.ar    1  UNL1        0.0087
      8 C          26.7191   35.9163   28.7826 C.ar    1  UNL1        0.0658
      9 S          26.9482   35.3878   27.0916 S.2     1  UNL1       -0.0468
     10 O          26.6472   34.7375   30.7949 O.co2   1  UNL1       -0.8594
     11 C          26.4737   29.3472   28.6991 C.3     1  UNL1        0.0085
     12 C          27.4358   30.0737   27.7570 C.3     1  UNL1        0.0676
     13 C          28.6297   38.1675   28.5115 C.3     1  UNL1        0.1058
     14 C          29.2676   39.0930   27.4729 C.3     1  UNL1        0.0617
     15 C          28.8364   40.5360   27.7491 C.3     1  UNL1        0.0232
     16 C          27.3078   40.6189   27.7160 C.3     1  UNL1        0.1540
     17 C          26.7268   39.6492   28.7476 C.3     1  UNL1        0.1169
     18 N          27.1587   38.2757   28.4116 N.4     1  UNL1        0.2787
     19 H          26.8765   38.0655   27.4542 H       1  UNL1        0.2072
     20 C          26.8729   42.0238   28.0452 C.2     1  UNL1        0.3223
     21 O          27.5514   42.7119   28.7704 O.2     1  UNL1       -0.2499
     22 O          25.7317   42.5105   27.5327 O.3     1  UNL1       -0.4484
     23 C          24.6235   42.6978   28.4520 C.3     1  UNL1        0.2086
     24 C          23.5257   41.6782   28.1420 C.3     1  UNL1        0.0513
     25 C          25.0438   37.6095   29.4012 C.ar    1  UNL1        0.0316
     26 C          24.4253   37.7313   30.6315 C.ar    1  UNL1        0.0012
     27 C          23.0736   38.0124   30.7008 C.ar    1  UNL1       -0.0044
     28 C          22.3385   38.1628   29.5398 C.ar    1  UNL1       -0.0225
     29 C          22.9560   38.0358   28.3095 C.ar    1  UNL1       -0.0044
     30 C          24.3085   37.7590   28.2401 C.ar    1  UNL1        0.0012
     31 C          20.8642   38.4656   29.6153 C.3     1  UNL1        0.0224
     32 C          20.5364   39.0659   30.9839 C.3     1  UNL1        0.0047
     33 C          20.4919   39.4644   28.5178 C.3     1  UNL1        0.0047
@<TRIPOS>UNITY_ATOM_ATTR
10 1
charge -1
18 1
charge 1
@<TRIPOS>BOND
     1    11    12    1
     2    12     2    1
     3     2     6   ar
     4     2     3   ar
     5     3     4   ar
     6     4     9   ar
     7     4     5   ar
     8     5     6   ar
     9     5     7   ar
    10     7     8   ar
    11     7    10    1
    12     8     9   ar
    13     8     1    1
    14     1    25    1
    15     1    18    1
    16    25    30   ar
    17    25    26   ar
    18    26    27   ar
    19    27    28   ar
    20    28    29   ar
    21    28    31    1
    22    29    30   ar
    23    31    32    1
    24    31    33    1
    25    13    14    1
    26    13    18    1
    27    14    15    1
    28    15    16    1
    29    16    17    1
    30    16    20    1
    31    17    18    1
    32    20    21    2
    33    20    22    1
    34    22    23    1
    35    23    24    1
    36    18    19    1
@<TRIPOS>MOLECULE
ZINC14362385
 35 37 0 0 0
SMALL
GASTEIGER

@<TRIPOS>ATOM
      1 C          24.3617   37.3267   30.2681 C.ar    1  UNL1        0.0828
      2 C          23.0252   37.0335   29.9810 C.ar    1  UNL1        0.0257
      3 C          22.2866   37.9196   29.2042 C.ar    1  UNL1        0.0817
      4 C          22.9323   39.0883   28.7370 C.ar    1  UNL1        0.0626
      5 C          22.5185   40.1823   27.9486 C.ar    1  UNL1        0.1234
      6 N          23.5221   41.0023   27.8159 N.ar    1  UNL1       -0.1664
      7 N          24.6387   40.4969   28.4921 N.ar    1  UNL1       -0.2360
      8 C          24.2840   39.3065   29.0731 C.ar    1  UNL1        0.1610
      9 N          24.9386   38.4278   29.8167 N.ar    1  UNL1       -0.2269
     10 C          26.4283   35.7201   29.0361 C.3     1  UNL1        0.0311
     11 C          26.1474   35.6039   30.5122 C.ar    1  UNL1       -0.0204
     12 C          26.8806   34.7297   31.2888 C.ar    1  UNL1       -0.0042
     13 C          26.6203   34.6182   32.6427 C.ar    1  UNL1       -0.0003
     14 C          25.6276   35.3844   33.2271 C.ar    1  UNL1        0.0000
     15 C          24.8916   36.2653   32.4614 C.ar    1  UNL1        0.0012
     16 C          25.1497   36.3822   31.0964 C.ar    1  UNL1        0.0138
     17 C          25.9562   41.1327   28.5707 C.3     1  UNL1        0.1069
     18 C          25.8100   42.5385   29.1567 C.3     1  UNL1        0.0264
     19 C          26.5625   41.2249   27.1690 C.3     1  UNL1        0.0264
     20 C          20.8715   37.6483   28.8765 C.2     1  UNL1        0.3417
     21 O          20.5333   37.5029   27.7189 O.2     1  UNL1       -0.2449
     22 O          19.9565   37.5624   29.8615 O.3     1  UNL1       -0.4397
     23 C          19.3368   38.8018   30.2956 C.3     1  UNL1        0.2444
     24 C          17.8147   38.6530   30.2530 C.3     1  UNL1        0.0575
     25 C          19.7718   39.1143   31.7042 C.2     1  UNL1        0.2634
     26 O          20.9477   39.0766   31.9983 O.2     1  UNL1       -0.2712
     27 N          18.8538   39.4360   32.6372 N.am    1  UNL1       -0.2929
     28 H          17.8992   39.4668   32.3984 H       1  UNL1        0.1504
     29 C          19.2765   39.7399   34.0065 C.3     1  UNL1        0.1363
     30 C          20.6244   40.4632   33.9755 C.3     1  UNL1        0.0353
     31 C          18.2323   40.6358   34.6758 C.3     1  UNL1        0.0301
     32 C          18.9372   41.7653   35.4295 C.3     1  UNL1        0.0027
     33 C          17.3120   41.2314   33.6085 C.3     1  UNL1        0.0027
     34 C          19.4092   38.4874   34.7685 C.1     1  UNL1        0.0896
     35 N          19.5116   37.5208   35.3564 N.1     1  UNL1       -0.1943
@<TRIPOS>BOND
     1    10    11    1
     2    11    16   ar
     3    11    12   ar
     4    12    13   ar
     5    13    14   ar
     6    14    15   ar
     7    15    16   ar
     8    16     1    1
     9     1     9   ar
    10     1     2   ar
    11     2     3   ar
    12     3     4   ar
    13     3    20    1
    14     4     8   ar
    15     4     5   ar
    16     5     6   ar
    17     6     7   ar
    18     7     8   ar
    19     7    17    1
    20     8     9   ar
    21    17    18    1
    22    17    19    1
    23    20    21    2
    24    20    22    1
    25    22    23    1
    26    23    24    1
    27    23    25    1
    28    25    26    2
    29    25    27   am
    30    27    29    1
    31    29    30    1
    32    29    34    1
    33    29    31    1
    34    34    35    3
    35    31    32    1
    36    31    33    1
    37    27    28    1
@<TRIPOS>MOLECULE
ZINC23589132
 32 34 0 0 0
SMALL
GASTEIGER

@<TRIPOS>ATOM
      1 N          24.0677   40.2164   28.2329 N.ar    1  UNL1       -0.2757
      2 C          25.3866   39.9225   28.1639 C.ar    1  UNL1        0.2637
      3 O          26.1655   40.6519   27.5786 O.2     1  UNL1       -0.2669
      4 C          25.8458   38.6913   28.8262 C.ar    1  UNL1        0.0739
      5 C          27.1868   38.3087   28.8125 C.ar    1  UNL1        0.0065
      6 C          27.5717   37.1555   29.4338 C.ar    1  UNL1        0.0067
      7 C          26.6308   36.3497   30.0883 C.ar    1  UNL1        0.0771
      8 C          25.2899   36.7116   30.1145 C.ar    1  UNL1        0.0258
      9 C          24.8839   37.8898   29.4815 C.ar    1  UNL1        0.0882
     10 N          23.5879   38.2813   29.4811 N.ar    1  UNL1       -0.2224
     11 C          23.2050   39.3851   28.8880 C.ar    1  UNL1        0.1738
     12 C          27.0686   35.1041   30.7560 C.2     1  UNL1        0.3414
     13 O          27.5939   35.1538   31.8498 O.2     1  UNL1       -0.2449
     14 O          26.8844   33.9151   30.1508 O.3     1  UNL1       -0.4413
     15 C          26.9289   32.7329   30.9928 C.3     1  UNL1        0.2560
     16 C          23.5602   41.4333   27.5945 C.3     1  UNL1        0.1109
     17 C          22.5123   43.2953   28.8894 C.3     1  UNL1        0.0020
     18 C          23.8366   42.6367   28.4980 C.3     1  UNL1        0.0228
     19 C          24.7072   43.6476   27.7490 C.3     1  UNL1        0.0020
     20 S          21.4974   39.8164   28.9376 S.3     1  UNL1       -0.0703
     21 C          20.8259   38.3482   29.7559 C.3     1  UNL1        0.1163
     22 C          20.6461   37.2290   28.7281 C.3     1  UNL1        0.0204
     23 C          19.4923   38.6827   30.3729 C.2     1  UNL1        0.1831
     24 O          18.4747   38.5481   29.7272 O.2     1  UNL1       -0.2904
     25 C          19.4250   39.1721   31.7575 C.ar    1  UNL1        0.0379
     26 C          20.6016   39.4476   32.4632 C.ar    1  UNL1        0.0053
     27 C          20.5329   39.9061   33.7605 C.ar    1  UNL1        0.0321
     28 C          19.3011   40.0946   34.3688 C.ar    1  UNL1        0.1674
     29 C          18.1286   39.8239   33.6749 C.ar    1  UNL1        0.1675
     30 C          18.1842   39.3699   32.3732 C.ar    1  UNL1        0.0348
     31 F          16.9321   40.0103   34.2737 F       1  UNL1       -0.2018
     32 F          19.2410   40.5441   35.6414 F       1  UNL1       -0.2018
@<TRIPOS>BOND
     1    17    18    1
     2    18    19    1
     3    18    16    1
     4    16     1    1
     5     1    11   ar
     6     1     2   ar
     7     2     3    2
     8     2     4   ar
     9     4     9   ar
    10     4     5   ar
    11     5     6   ar
    12     6     7   ar
    13     7     8   ar
    14     7    12    1
    15     8     9   ar
    16     9    10   ar
    17    10    11   ar
    18    11    20    1
    19    20    21    1
    20    21    22    1
    21    21    23    1
    22    23    24    2
    23    23    25    1
    24    25    30   ar
    25    25    26   ar
    26    26    27   ar
    27    27    28   ar
    28    28    29   ar
    29    28    32    1
    30    29    30   ar
    31    29    31    1
    32    12    13    2
    33    12    14    1
    34    14    15    1
@<TRIPOS>MOLECULE
ZINC24639020
 30 32 0 0 0
SMALL
GASTEIGER

@<TRIPOS>ATOM
      1 C          24.5669   37.2396   30.4986 C.ar    1  UNL1        0.0549
      2 C          25.3102   38.3264   30.0336 C.ar    1  UNL1        0.0055
      3 C          24.8056   39.1234   29.0281 C.ar    1  UNL1        0.0128
      4 C          23.5585   38.8550   28.4877 C.ar    1  UNL1        0.0733
      5 C          22.8140   37.7823   28.9491 C.ar    1  UNL1        0.0999
      6 C          23.3110   36.9741   29.9501 C.ar    1  UNL1        0.0223
      7 CL         22.9269   39.8670   27.2265 Cl      1  UNL1       -0.0810
      8 N          26.1071   35.5162   31.3050 N.am    1  UNL1       -0.2673
      9 C          25.1051   36.3774   31.5715 C.2     1  UNL1        0.2496
     10 O          24.6476   36.4485   32.6954 O.2     1  UNL1       -0.2699
     11 C          26.6089   35.3773   29.9357 C.3     1  UNL1        0.1205
     12 C          27.3588   33.5589   28.4892 C.2     1  UNL1       -0.0031
     13 C          26.7827   33.9162   29.6101 C.2     1  UNL1       -0.0047
     14 C          26.6945   34.7191   32.3848 C.3     1  UNL1        0.1272
     15 C          27.9395   35.4003   32.8919 C.ar    1  UNL1        0.0273
     16 C          29.2369   35.0520   32.7112 C.ar    1  UNL1        0.0044
     17 C          30.2262   35.8370   33.2730 C.ar    1  UNL1        0.0072
     18 C          29.8694   36.9259   33.9971 C.ar    1  UNL1        0.0352
     19 S          28.0879   36.8707   33.8933 S.2     1  UNL1       -0.0891
     20 S          21.2291   37.4488   28.2554 S.O2    1  UNL1       -0.0570
     21 O          21.3882   37.4828   26.8438 O.2     1  UNL1       -0.1841
     22 O          20.7184   36.3115   28.9374 O.2     1  UNL1       -0.1841
     23 N          20.2440   38.7198   28.6514 N.pl3   1  UNL1       -0.5358
     24 C          19.7875   38.8677   29.9647 C.ar    1  UNL1       -0.1122
     25 C          18.4611   38.5967   30.2744 C.ar    1  UNL1       -0.0215
     26 C          18.0133   38.7389   31.5733 C.ar    1  UNL1        0.0278
     27 C          18.8833   39.1613   32.5642 C.ar    1  UNL1        0.1400
     28 C          20.2049   39.4370   32.2567 C.ar    1  UNL1        0.0278
     29 C          20.6582   39.2911   30.9602 C.ar    1  UNL1       -0.0215
     30 F          18.4421   39.3042   33.8331 F       1  UNL1       -0.2042
@<TRIPOS>UNITY_ATOM_ATTR
23 1
charge -1
@<TRIPOS>BOND
     1    12    13    2
     2    13    11    1
     3    11     8    1
     4     8    14    1
     5     8     9   am
     6    14    15    1
     7    15    19   ar
     8    15    16   ar
     9    16    17   ar
    10    17    18   ar
    11    18    19   ar
    12     9    10    2
    13     9     1    1
    14     1     6   ar
    15     1     2   ar
    16     2     3   ar
    17     3     4   ar
    18     4     5   ar
    19     4     7    1
    20     5     6   ar
    21     5    20    1
    22    20    21    2
    23    20    22    2
    24    20    23    1
    25    23    24    1
    26    24    29   ar
    27    24    25   ar
    28    25    26   ar
    29    26    27   ar
    30    27    28   ar
    31    27    30    1
    32    28    29   ar
@<TRIPOS>MOLECULE
ZINC19810472
 26 28 0 0 0
SMALL
GASTEIGER

@<TRIPOS>ATOM
      1 C          22.5685   38.4194   26.7957 C.2     1  UNL1        0.1035
      2 O          22.4653   37.9642   25.6727 O.2     1  UNL1       -0.3112
      3 C          21.5981   38.0372   27.8384 C.ar    1  UNL1        0.1335
      4 C          20.9689   38.8942   28.6967 C.ar    1  UNL1        0.0830
      5 N          20.1722   38.1411   29.4858 N.ar    1  UNL1       -0.2145
      6 N          20.3331   36.8112   29.0718 N.ar    1  UNL1       -0.0598
      7 N          21.1789   36.7874   28.1014 N.ar    1  UNL1       -0.1275
      8 C          21.1343   40.3910   28.7540 C.3     1  UNL1        0.0539
      9 C          19.3399   38.6013   30.5165 C.ar    1  UNL1        0.0841
     10 C          17.9605   38.5717   30.3620 C.ar    1  UNL1        0.0197
     11 C          17.1432   39.0305   31.3765 C.ar    1  UNL1        0.0082
     12 C          17.6979   39.5085   32.5505 C.ar    1  UNL1        0.0347
     13 C          19.0723   39.5389   32.7069 C.ar    1  UNL1        0.0082
     14 C          19.8940   39.0867   31.6932 C.ar    1  UNL1        0.0197
     15 BR         16.5757   40.1284   33.9406 Br      1  UNL1       -0.0490
     16 N          23.5697   39.2733   27.0874 N.am    1  UNL1       -0.5874
     17 C          26.7464   37.7616   29.1294 C.ar    1  UNL1        0.1577
     18 N          26.0898   38.7515   29.7056 N.ar    1  UNL1       -0.1363
     19 N          25.0045   39.3119   29.0725 N.ar    1  UNL1       -0.1652
     20 C          24.6255   38.8583   27.8940 C.ar    1  UNL1        0.0183
     21 S          25.8238   37.5640   27.6126 S.2     1  UNL1       -0.0641
     22 S          28.1521   36.8691   29.7058 S.3     1  UNL1       -0.0867
     23 C          27.5072   35.8732   31.0780 C.3     1  UNL1        0.0642
     24 C          26.2356   35.1501   30.6298 C.3     1  UNL1        0.0121
     25 C          24.9875   36.2324   32.5041 C.3     1  UNL1        0.0000
     26 C          25.3378   34.8980   31.8427 C.3     1  UNL1        0.0009
@<TRIPOS>UNITY_ATOM_ATTR
16 1
charge -1
@<TRIPOS>BOND
     1    25    26    1
     2    26    24    1
     3    24    23    1
     4    23    22    1
     5    22    17    1
     6    17    21   ar
     7    17    18   ar
     8    18    19   ar
     9    19    20   ar
    10    20    21   ar
    11    20    16    1
    12    16     1    1
    13     1     2    2
    14     1     3    1
    15     3     7   ar
    16     3     4   ar
    17     4     5   ar
    18     4     8    1
    19     5     6   ar
    20     5     9    1
    21     6     7   ar
    22     9    14   ar
    23     9    10   ar
    24    10    11   ar
    25    11    12   ar
    26    12    13   ar
    27    12    15    1
    28    13    14   ar
@<TRIPOS>MOLECULE
ZINC25433170
 33 36 0 0 0
SMALL
GASTEIGER

@<TRIPOS>ATOM
      1 O          20.7005   39.4598   29.2291 O.3     1  UNL1       -0.4340
      2 C          19.8746   38.4768   29.6383 C.2     1  UNL1        0.3613
      3 O          20.0212   37.3460   29.2182 O.2     1  UNL1       -0.2431
      4 N          16.5435   38.9513   30.9880 N.ar    1  UNL1       -0.2165
      5 C          16.6710   39.3014   32.2845 C.ar    1  UNL1        0.2763
      6 O          15.6890   39.5193   32.9702 O.2     1  UNL1       -0.2655
      7 C          18.0227   39.4131   32.8500 C.ar    1  UNL1        0.0593
      8 C          18.2610   39.7677   34.1741 C.ar    1  UNL1        0.0048
      9 C          19.5602   39.8510   34.6277 C.ar    1  UNL1        0.0002
     10 C          20.6268   39.5854   33.7790 C.ar    1  UNL1        0.0001
     11 C          20.4114   39.2325   32.4636 C.ar    1  UNL1        0.0019
     12 C          19.1086   39.1427   31.9856 C.ar    1  UNL1        0.0304
     13 C          18.7928   38.7732   30.5962 C.ar    1  UNL1        0.1764
     14 N          17.5379   38.7102   30.2202 N.ar    1  UNL1       -0.1602
     15 C          15.1937   38.8414   30.4292 C.3     1  UNL1        0.1307
     16 C          13.8832   37.4451   28.8246 C.3     1  UNL1        0.0021
     17 C          15.2497   38.0717   29.1081 C.3     1  UNL1        0.0265
     18 C          21.6512   39.1293   28.1827 C.3     1  UNL1        0.2957
     19 C          22.9437   38.6682   28.8055 C.ar    1  UNL1        0.2812
     20 N          23.1920   37.4774   29.2911 N.ar    1  UNL1       -0.1876
     21 C          24.4673   37.5260   29.7377 C.ar    1  UNL1        0.2034
     22 N          24.9142   38.7315   29.4994 N.ar    1  UNL1       -0.0559
     23 O          24.0541   39.3959   28.9610 O.2     1  UNL1       -0.3331
     24 C          25.2191   36.4183   30.3788 C.ar    1  UNL1        0.0391
     25 C          24.8656   35.9789   31.6528 C.ar    1  UNL1        0.0031
     26 C          25.5647   34.9449   32.2421 C.ar    1  UNL1        0.0040
     27 C          26.6216   34.3526   31.5746 C.ar    1  UNL1        0.0714
     28 C          26.9802   34.7886   30.3118 C.ar    1  UNL1        0.0040
     29 C          26.2846   35.8182   29.7110 C.ar    1  UNL1        0.0031
     30 C          27.3856   33.2287   32.2259 C.3     1  UNL1        0.4186
     31 F          28.7372   33.3198   31.8768 F       1  UNL1       -0.1659
     32 F          27.2557   33.3206   33.6158 F       1  UNL1       -0.1659
     33 F          26.8729   32.0023   31.7897 F       1  UNL1       -0.1659
@<TRIPOS>BOND
     1    16    17    1
     2    17    15    1
     3    15     4    1
     4     4    14   ar
     5     4     5   ar
     6     5     6    2
     7     5     7   ar
     8     7    12   ar
     9     7     8   ar
    10     8     9   ar
    11     9    10   ar
    12    10    11   ar
    13    11    12   ar
    14    12    13   ar
    15    13    14   ar
    16    13     2    1
    17     2     3    2
    18     2     1    1
    19     1    18    1
    20    18    19    1
    21    19    23   ar
    22    19    20   ar
    23    20    21   ar
    24    21    22   ar
    25    21    24    1
    26    22    23   ar
    27    24    29   ar
    28    24    25   ar
    29    25    26   ar
    30    26    27   ar
    31    27    28   ar
    32    27    30    1
    33    28    29   ar
    34    30    31    1
    35    30    32    1
    36    30    33    1
@<TRIPOS>MOLECULE
ZINC31285348
 34 37 0 0 0
SMALL
GASTEIGER

@<TRIPOS>ATOM
      1 C          15.1680   37.6064   29.3669 C.2     1  UNL1        0.2181
      2 O          15.2515   36.3993   29.2733 O.2     1  UNL1       -0.2873
      3 C          19.1782   39.6844   31.7248 C.3     1  UNL1        0.0500
      4 C          17.7854   39.2376   31.3622 C.ar    1  UNL1        0.0375
      5 C          17.4553   38.5258   30.2716 C.ar    1  UNL1        0.0168
      6 C          16.0013   38.3253   30.3330 C.ar    1  UNL1        0.0512
      7 C          15.5823   38.9495   31.4928 C.ar    1  UNL1        0.0402
      8 N          16.6587   39.4921   32.0893 N.ar    1  UNL1       -0.3320
      9 C          14.1644   39.0145   31.9991 C.3     1  UNL1        0.0501
     10 C          16.6271   40.2447   33.3457 C.3     1  UNL1        0.1074
     11 C          16.3763   41.7243   33.0476 C.3     1  UNL1        0.0294
     12 C          17.9473   40.0921   34.0561 C.ar    1  UNL1       -0.0018
     13 C          18.6956   41.2107   34.3720 C.ar    1  UNL1       -0.0025
     14 C          19.9045   41.0710   35.0276 C.ar    1  UNL1       -0.0003
     15 C          20.3696   39.8121   35.3591 C.ar    1  UNL1       -0.0000
     16 C          19.6238   38.6932   35.0384 C.ar    1  UNL1       -0.0003
     17 C          18.4129   38.8332   34.3867 C.ar    1  UNL1       -0.0025
     18 C          14.2069   38.3654   28.4887 C.3     1  UNL1        0.2770
     19 O          13.4779   37.4318   27.6490 O.3     1  UNL1       -0.4358
     20 C          12.1424   37.5919   27.5728 C.2     1  UNL1        0.3613
     21 O          11.4751   37.6191   28.5875 O.2     1  UNL1       -0.2431
     22 C          11.4894   37.7344   26.2552 C.ar    1  UNL1        0.1768
     23 C          10.7598   36.6514   25.7081 C.ar    1  UNL1        0.0324
     24 C          10.1705   36.8205   24.4899 C.ar    1  UNL1        0.0644
     25 C          10.3245   38.0682   23.8476 C.ar    1  UNL1        0.2805
     26 O           9.8152   38.2641   22.7568 O.2     1  UNL1       -0.2652
     27 N          11.0375   39.0402   24.4466 N.ar    1  UNL1       -0.1943
     28 N          11.5829   38.8689   25.5962 N.ar    1  UNL1       -0.1559
     29 C          11.1842   40.2723   23.8011 C.ar    1  UNL1        0.0860
     30 C          12.3608   40.5680   23.1243 C.ar    1  UNL1        0.0193
     31 C          12.4998   41.7830   22.4828 C.ar    1  UNL1        0.0015
     32 C          11.4741   42.7098   22.5239 C.ar    1  UNL1        0.0001
     33 C          10.3037   42.4209   23.2016 C.ar    1  UNL1        0.0015
     34 C          10.1556   41.2054   23.8401 C.ar    1  UNL1        0.0193
@<TRIPOS>BOND
     1     3     4    1
     2     4     8   ar
     3     4     5   ar
     4     5     6   ar
     5     6     7   ar
     6     6     1    1
     7     7     8   ar
     8     7     9    1
     9     8    10    1
    10    10    11    1
    11    10    12    1
    12    12    17   ar
    13    12    13   ar
    14    13    14   ar
    15    14    15   ar
    16    15    16   ar
    17    16    17   ar
    18     1     2    2
    19     1    18    1
    20    18    19    1
    21    19    20    1
    22    20    21    2
    23    20    22    1
    24    22    28   ar
    25    22    23   ar
    26    23    24   ar
    27    24    25   ar
    28    25    26    2
    29    25    27   ar
    30    27    28   ar
    31    27    29    1
    32    29    34   ar
    33    29    30   ar
    34    30    31   ar
    35    31    32   ar
    36    32    33   ar
    37    33    34   ar
@<TRIPOS>MOLECULE
ZINC25491564
 34 37 0 0 0
SMALL
GASTEIGER

@<TRIPOS>ATOM
      1 N          20.7460   38.1590   29.6877 N.ar    1  UNL1       -0.1770
      2 C          21.1228   38.5751   30.9142 C.ar    1  UNL1        0.1888
      3 S          22.7286   38.6701   31.5000 S.2     1  UNL1       -0.0107
      4 N          20.0068   38.9047   31.5945 N.ar    1  UNL1       -0.2698
      5 C          18.9172   38.6798   30.7740 C.ar    1  UNL1        0.1689
      6 N          19.3478   38.2325   29.6276 N.ar    1  UNL1       -0.1449
      7 C          17.5007   38.9080   31.1358 C.ar    1  UNL1        0.0392
      8 C          17.1727   39.4178   32.3929 C.ar    1  UNL1        0.0033
      9 C          15.8508   39.6294   32.7274 C.ar    1  UNL1        0.0032
     10 C          14.8487   39.3378   31.8204 C.ar    1  UNL1        0.0369
     11 C          15.1656   38.8305   30.5679 C.ar    1  UNL1        0.1388
     12 C          16.4897   38.6198   30.2202 C.ar    1  UNL1        0.0400
     13 O          14.1767   38.5460   29.6800 O.3     1  UNL1       -0.4714
     14 C          14.4845   37.6116   28.6435 C.3     1  UNL1        0.2525
     15 C          19.9590   39.3872   32.9089 C.ar    1  UNL1        0.0672
     16 C          19.8486   38.5006   33.9719 C.ar    1  UNL1        0.0176
     17 C          19.8065   38.9791   35.2668 C.ar    1  UNL1        0.0015
     18 C          19.8637   40.3401   35.5046 C.ar    1  UNL1        0.0001
     19 C          19.9684   41.2259   34.4478 C.ar    1  UNL1        0.0015
     20 C          20.0162   40.7532   33.1510 C.ar    1  UNL1        0.0176
     21 C          21.6361   37.7067   28.6157 C.3     1  UNL1        0.2438
     22 C          23.9926   37.9224   28.1026 C.3     1  UNL1        0.1698
     23 N          22.7691   38.6341   28.4957 N.4     1  UNL1        0.3031
     24 H          22.9303   39.0522   29.4119 H       1  UNL1        0.2096
     25 C          22.4644   39.7180   27.5522 C.3     1  UNL1        0.1353
     26 C          22.9957   41.0199   28.0944 C.ar    1  UNL1        0.0344
     27 C          22.1300   42.0679   28.3475 C.ar    1  UNL1        0.0015
     28 C          22.6173   43.2621   28.8444 C.ar    1  UNL1        0.0016
     29 C          23.9703   43.4086   29.0884 C.ar    1  UNL1        0.0241
     30 C          24.8363   42.3628   28.8304 C.ar    1  UNL1        0.1428
     31 C          24.3481   41.1664   28.3384 C.ar    1  UNL1        0.0255
     32 N          26.2855   42.5217   29.0860 N.pl3   1  UNL1        0.0577
     33 O          26.8917   41.6671   29.7072 O.2     1  UNL1       -0.1261
     34 O          26.8720   43.5070   28.6751 O.2     1  UNL1       -0.1261
@<TRIPOS>UNITY_ATOM_ATTR
23 1
charge 1
@<TRIPOS>BOND
     1    22    23    1
     2    23    25    1
     3    23    21    1
     4    25    26    1
     5    26    31   ar
     6    26    27   ar
     7    27    28   ar
     8    28    29   ar
     9    29    30   ar
    10    30    31   ar
    11    30    32    1
    12    32    33    2
    13    32    34    2
    14    21     1    1
    15     1     6   ar
    16     1     2   ar
    17     2     3    2
    18     2     4   ar
    19     4     5   ar
    20     4    15    1
    21     5     6   ar
    22     5     7    1
    23     7    12   ar
    24     7     8   ar
    25     8     9   ar
    26     9    10   ar
    27    10    11   ar
    28    11    12   ar
    29    11    13    1
    30    13    14    1
    31    15    20   ar
    32    15    16   ar
    33    16    17   ar
    34    17    18   ar
    35    18    19   ar
    36    19    20   ar
    37    23    24    1
@<TRIPOS>MOLECULE
ZINC28605308
 31 34 0 0 0
SMALL
GASTEIGER

@<TRIPOS>ATOM
      1 N          21.3379   38.4665   29.3079 N.am    1  UNL1       -0.2352
      2 C          21.5716   39.2951   28.2709 C.2     1  UNL1        0.2542
      3 O          20.8072   40.2118   28.0413 O.2     1  UNL1       -0.2695
      4 C          20.2660   38.6996   30.1522 C.ar    1  UNL1        0.1690
      5 N          18.9828   38.5627   29.9109 N.ar    1  UNL1       -0.2237
      6 C          18.0374   38.8289   30.8378 C.ar    1  UNL1        0.0892
      7 C          16.6331   38.7233   30.7082 C.ar    1  UNL1        0.0194
      8 C          15.8078   39.0347   31.7568 C.ar    1  UNL1       -0.0027
      9 C          16.3141   39.4621   32.9759 C.ar    1  UNL1       -0.0213
     10 C          17.6825   39.5769   33.1381 C.ar    1  UNL1        0.0038
     11 C          18.5170   39.2672   32.0933 C.ar    1  UNL1        0.0494
     12 S          20.2770   39.2560   31.8506 S.2     1  UNL1       -0.0512
     13 C          15.3822   39.7973   34.1117 C.3     1  UNL1        0.0310
     14 C          22.7539   39.0854   27.4093 C.ar    1  UNL1        0.0553
     15 C          22.7538   38.0667   26.4544 C.ar    1  UNL1        0.0046
     16 C          23.8604   37.8767   25.6532 C.ar    1  UNL1        0.0015
     17 C          24.9688   38.6933   25.7938 C.ar    1  UNL1        0.0199
     18 C          24.9754   39.7044   26.7379 C.ar    1  UNL1        0.1223
     19 C          23.8733   39.9085   27.5425 C.ar    1  UNL1        0.0244
     20 S          26.3916   40.7388   26.9082 S.O2    1  UNL1        0.0633
     21 O          27.2734   40.0760   27.8039 O.2     1  UNL1       -0.1528
     22 O          26.7809   41.1139   25.5940 O.2     1  UNL1       -0.1528
     23 N          25.8975   42.1242   27.6689 N.3     1  UNL1       -0.1555
     24 C          25.9891   42.3886   29.1123 C.3     1  UNL1        0.0958
     25 C          25.3881   43.7880   29.3609 C.3     1  UNL1        0.0206
     26 C          24.4704   43.9939   28.1270 C.3     1  UNL1        0.0206
     27 C          25.2868   43.2941   27.0119 C.3     1  UNL1        0.0958
     28 C          22.2184   37.3192   29.5416 C.3     1  UNL1        0.1004
     29 C          23.3481   37.7279   30.4890 C.3     1  UNL1        0.0220
     30 C          25.3711   36.9359   29.2551 C.3     1  UNL1        0.0001
     31 C          24.4537   36.6709   30.4504 C.3     1  UNL1        0.0018
@<TRIPOS>BOND
     1    30    31    1
     2    31    29    1
     3    29    28    1
     4    28     1    1
     5     1     4    1
     6     1     2   am
     7     4    12   ar
     8     4     5   ar
     9     5     6   ar
    10     6    11   ar
    11     6     7   ar
    12     7     8   ar
    13     8     9   ar
    14     9    10   ar
    15     9    13    1
    16    10    11   ar
    17    11    12   ar
    18     2     3    2
    19     2    14    1
    20    14    19   ar
    21    14    15   ar
    22    15    16   ar
    23    16    17   ar
    24    17    18   ar
    25    18    19   ar
    26    18    20    1
    27    20    21    2
    28    20    22    2
    29    20    23    1
    30    23    27    1
    31    23    24    1
    32    24    25    1
    33    25    26    1
    34    26    27    1
@<TRIPOS>MOLECULE
ZINC23442398
 33 36 0 0 0
SMALL
GASTEIGER

@<TRIPOS>ATOM
      1 C          13.4054   37.4570   28.1469 C.2     1  UNL1        0.3766
      2 O          14.5174   37.6513   27.6942 O.2     1  UNL1       -0.2414
      3 C          10.7004   38.0030   25.8176 C.ar    1  UNL1        0.1474
      4 C          10.4906   36.6954   26.0880 C.ar    1  UNL1        0.0381
      5 C          11.4791   36.2985   27.0012 C.ar    1  UNL1        0.0471
      6 C          12.2490   37.3998   27.2497 C.ar    1  UNL1        0.2201
      7 O          11.7572   38.4251   26.5234 O.2     1  UNL1       -0.4494
      8 C           9.8782   38.8477   24.8785 C.3     1  UNL1        0.2197
      9 S          10.4729   38.6173   23.1803 S.O2    1  UNL1        0.0160
     10 O          11.6041   37.7574   23.1702 O.2     1  UNL1       -0.1682
     11 O           9.3775   38.3836   22.3056 O.2     1  UNL1       -0.1682
     12 C          12.0868   42.6647   21.9537 C.ar    1  UNL1        0.0001
     13 C          11.5634   41.8114   21.0003 C.ar    1  UNL1        0.0013
     14 C          11.0707   40.5754   21.3748 C.ar    1  UNL1        0.0184
     15 C          11.1012   40.1927   22.7029 C.ar    1  UNL1        0.1062
     16 C          11.6195   41.0482   23.6569 C.ar    1  UNL1        0.0184
     17 C          12.1172   42.2820   23.2816 C.ar    1  UNL1        0.0013
     18 O          13.2370   37.2940   29.4753 O.3     1  UNL1       -0.4383
     19 C          12.9222   38.4809   30.2504 C.3     1  UNL1        0.2355
     20 C          14.1446   38.9210   31.0139 C.ar    1  UNL1        0.0213
     21 C          14.1818   38.7884   32.3905 C.ar    1  UNL1       -0.0007
     22 C          15.3007   39.1844   33.0945 C.ar    1  UNL1       -0.0002
     23 C          16.3904   39.7300   32.4168 C.ar    1  UNL1        0.0006
     24 C          16.3447   39.8664   31.0299 C.ar    1  UNL1       -0.0002
     25 C          15.2228   39.4612   30.3361 C.ar    1  UNL1       -0.0007
     26 C          17.5924   40.1628   33.1678 C.ar    1  UNL1        0.0096
     27 C          17.4797   41.1027   34.1884 C.ar    1  UNL1        0.0007
     28 C          18.6018   41.5031   34.8855 C.ar    1  UNL1        0.0000
     29 C          19.8448   40.9753   34.5774 C.ar    1  UNL1        0.0007
     30 C          19.9773   40.0427   33.5701 C.ar    1  UNL1        0.0103
     31 C          18.8534   39.6220   32.8575 C.ar    1  UNL1        0.0684
     32 C          18.9837   38.6500   31.8141 C.1     1  UNL1        0.1004
     33 N          19.0872   37.8788   30.9864 N.1     1  UNL1       -0.1908
@<TRIPOS>BOND
     1    12    17   ar
     2    12    13   ar
     3    13    14   ar
     4    14    15   ar
     5    15    16   ar
     6    15     9    1
     7    16    17   ar
     8     9    10    2
     9     9    11    2
    10     9     8    1
    11     8     3    1
    12     3     7   ar
    13     3     4   ar
    14     4     5   ar
    15     5     6   ar
    16     6     7   ar
    17     6     1    1
    18     1     2    2
    19     1    18    1
    20    18    19    1
    21    19    20    1
    22    20    25   ar
    23    20    21   ar
    24    21    22   ar
    25    22    23   ar
    26    23    24   ar
    27    23    26    1
    28    24    25   ar
    29    26    31   ar
    30    26    27   ar
    31    27    28   ar
    32    28    29   ar
    33    29    30   ar
    34    30    31   ar
    35    31    32    1
    36    32    33    3
@<TRIPOS>MOLECULE
ZINC15264857
 33 36 0 0 0
SMALL
GASTEIGER

@<TRIPOS>ATOM
      1 C          23.2961   39.2004   27.4837 C.2     1  UNL1        0.0259
      2 C          22.1845   38.7780   28.1817 C.2     1  UNL1        0.1602
      3 C          21.3047   37.6405   27.8561 C.2     1  UNL1        0.3649
      4 O          21.4047   36.8748   26.9159 O.2     1  UNL1       -0.2427
      5 O          20.3640   37.6306   28.8250 O.3     1  UNL1       -0.4019
      6 C          20.6103   38.6452   29.6761 C.2     1  UNL1        0.2333
      7 N          21.6623   39.3283   29.3160 N.2     1  UNL1       -0.2047
      8 C          25.9127   41.4920   28.8790 C.ar    1  UNL1        0.1731
      9 C          25.2581   40.3380   28.4976 C.ar    1  UNL1        0.0401
     10 C          23.9969   40.4204   27.8912 C.ar    1  UNL1        0.0049
     11 C          23.4109   41.6751   27.6708 C.ar    1  UNL1        0.0034
     12 C          24.0693   42.8193   28.0610 C.ar    1  UNL1        0.0408
     13 C          25.3195   42.7359   28.6615 C.ar    1  UNL1        0.1825
     14 C          28.2507   41.1475   28.6147 C.3     1  UNL1        0.2526
     15 O          27.1361   41.4163   29.4675 O.3     1  UNL1       -0.4683
     16 O          25.9661   43.8691   29.0384 O.3     1  UNL1       -0.4158
     17 C          26.4817   44.6556   28.0712 C.2     1  UNL1        0.3809
     18 O          27.5671   44.3937   27.5885 O.2     1  UNL1       -0.2410
     19 C          25.7347   45.8247   27.6023 C.ar    1  UNL1        0.2210
     20 C          24.6869   46.4198   28.2469 C.ar    1  UNL1        0.0475
     21 C          24.2794   47.4967   27.4453 C.ar    1  UNL1        0.0440
     22 C          25.0853   47.5126   26.3602 C.ar    1  UNL1        0.1799
     23 O          25.9638   46.5069   26.4609 O.2     1  UNL1       -0.4438
     24 C          19.7896   38.9501   30.8636 C.ar    1  UNL1        0.0539
     25 C          18.4067   38.7500   30.8299 C.ar    1  UNL1        0.0078
     26 C          17.6442   39.0363   31.9407 C.ar    1  UNL1        0.0372
     27 C          18.2478   39.5236   33.0935 C.ar    1  UNL1        0.1443
     28 C          19.6222   39.7245   33.1313 C.ar    1  UNL1        0.0372
     29 C          20.3924   39.4407   32.0250 C.ar    1  UNL1        0.0078
     30 O          17.4923   39.8046   34.1864 O.3     1  UNL1       -0.4236
     31 C          16.0915   39.9922   33.9758 C.3     1  UNL1        0.5087
     32 F          15.4088   38.8160   34.3039 F       1  UNL1       -0.1550
     33 F          15.6343   41.0380   34.7850 F       1  UNL1       -0.1550
@<TRIPOS>BOND
     1    14    15    1
     2    15     8    1
     3     8    13   ar
     4     8     9   ar
     5     9    10   ar
     6    10    11   ar
     7    10     1    1
     8    11    12   ar
     9    12    13   ar
    10    13    16    1
    11    16    17    1
    12    17    18    2
    13    17    19    1
    14    19    23   ar
    15    19    20   ar
    16    20    21   ar
    17    21    22   ar
    18    22    23   ar
    19     1     2    2
    20     2     7    1
    21     2     3    1
    22     3     4    2
    23     3     5    1
    24     5     6    1
    25     6     7    2
    26     6    24    1
    27    24    29   ar
    28    24    25   ar
    29    25    26   ar
    30    26    27   ar
    31    27    28   ar
    32    27    30    1
    33    28    29   ar
    34    30    31    1
    35    31    32    1
    36    31    33    1
@<TRIPOS>MOLECULE
ZINC08746924
 31 34 0 0 0
SMALL
GASTEIGER

@<TRIPOS>ATOM
      1 N          23.5878   37.8976   29.3001 N.am    1  UNL1       -0.2781
      2 C          24.3406   38.8573   28.7265 C.2     1  UNL1        0.2379
      3 O          23.9292   39.9967   28.6682 O.2     1  UNL1       -0.2738
      4 H          23.9217   36.9727   29.3475 H       1  UNL1        0.1553
      5 C          21.0945   38.0683   29.2289 C.ar    1  UNL1        0.0954
      6 C          19.9524   38.4788   30.0115 C.ar    1  UNL1        0.0104
      7 C          20.1944   38.9724   31.2388 C.ar    1  UNL1        0.0083
      8 S          21.9680   38.8893   31.3724 S.2     1  UNL1       -0.0764
      9 C          22.3436   38.2130   29.8233 C.ar    1  UNL1        0.0867
     10 C          19.2028   39.4744   32.2566 C.3     1  UNL1        0.0285
     11 C          17.8053   38.9614   31.9033 C.3     1  UNL1        0.0052
     12 C          19.5963   38.9670   33.6454 C.3     1  UNL1        0.0052
     13 C          20.9446   37.5236   27.8780 C.2     1  UNL1        0.3429
     14 O          20.4265   36.4351   27.7151 O.2     1  UNL1       -0.2448
     15 O          21.3810   38.2287   26.8141 O.3     1  UNL1       -0.4454
     16 C          23.2605   38.5513   25.2997 C.3     1  UNL1        0.0513
     17 C          22.2698   37.5463   25.8907 C.3     1  UNL1        0.2089
     18 C          25.6932   38.5144   28.1576 C.3     1  UNL1        0.1502
     19 S          26.2994   36.9838   28.9196 S.3     1  UNL1       -0.0655
     20 C          26.6301   35.9272   27.5489 C.ar    1  UNL1        0.1979
     21 N          26.6821   36.2980   26.2960 N.ar    1  UNL1       -0.1212
     22 N          26.9686   35.1662   25.5203 N.ar    1  UNL1       -0.1209
     23 C          27.0792   34.1550   26.3289 C.ar    1  UNL1        0.2016
     24 N          26.8775   34.5650   27.6201 N.ar    1  UNL1       -0.2634
     25 C          26.9585   33.6026   28.6385 C.ar    1  UNL1        0.0737
     26 C          26.7782   33.8239   30.0134 C.ar    1  UNL1        0.0181
     27 C          26.8890   32.7901   30.9130 C.ar    1  UNL1        0.0015
     28 C          27.1703   31.5006   30.4939 C.ar    1  UNL1        0.0006
     29 C          27.3476   31.2539   29.1438 C.ar    1  UNL1        0.0080
     30 C          27.2415   32.2908   28.2457 C.ar    1  UNL1        0.0485
     31 S          27.3905   32.4122   26.4798 S.2     1  UNL1       -0.0469
@<TRIPOS>BOND
     1    16    17    1
     2    17    15    1
     3    15    13    1
     4    13    14    2
     5    13     5    1
     6     5     9   ar
     7     5     6   ar
     8     6     7   ar
     9     7     8   ar
    10     7    10    1
    11     8     9   ar
    12     9     1    1
    13     1     2   am
    14     2     3    2
    15     2    18    1
    16    18    19    1
    17    19    20    1
    18    20    24   ar
    19    20    21   ar
    20    21    22   ar
    21    22    23   ar
    22    23    31   ar
    23    23    24   ar
    24    24    25   ar
    25    25    30   ar
    26    25    26   ar
    27    26    27   ar
    28    27    28   ar
    29    28    29   ar
    30    29    30   ar
    31    30    31   ar
    32    10    11    1
    33    10    12    1
    34     1     4    1
@<TRIPOS>MOLECULE
ZINC23647929
 33 36 0 0 0
SMALL
GASTEIGER

@<TRIPOS>ATOM
      1 C          25.8542   36.4368   30.2826 C.ar    1  UNL1        0.1725
      2 N          25.2417   37.2124   29.4095 N.ar    1  UNL1       -0.2241
      3 C          24.1236   37.8390   29.7185 C.ar    1  UNL1        0.1112
      4 C          23.6135   37.6741   30.9637 C.ar    1  UNL1        0.0566
      5 S          24.8184   36.5600   31.6709 S.2     1  UNL1       -0.0505
      6 N          27.0293   35.7074   30.1305 N.am    1  UNL1       -0.2169
      7 C          28.1517   36.0975   30.7666 C.2     1  UNL1        0.2350
      8 O          28.1163   37.0290   31.5425 O.2     1  UNL1       -0.2741
      9 C          29.4505   35.3762   30.5137 C.3     1  UNL1        0.0956
     10 C          27.0783   32.3164   27.7084 C.ar    1  UNL1       -0.0221
     11 C          27.0289   32.1812   29.0837 C.ar    1  UNL1       -0.0030
     12 C          27.0125   33.3031   29.8891 C.ar    1  UNL1        0.0150
     13 C          27.0457   34.5677   29.3165 C.ar    1  UNL1        0.0599
     14 C          27.0896   34.7001   27.9349 C.ar    1  UNL1        0.0150
     15 C          27.1120   33.5743   27.1351 C.ar    1  UNL1       -0.0030
     16 C          28.2861   30.2077   27.2146 C.3     1  UNL1        0.0050
     17 C          27.0961   31.0902   26.8325 C.3     1  UNL1        0.0264
     18 C          23.4319   38.7229   28.7129 C.3     1  UNL1        0.2548
     19 O          22.7659   37.8981   27.7207 O.3     1  UNL1       -0.4387
     20 C          21.4342   38.0611   27.5829 C.2     1  UNL1        0.3418
     21 O          20.8770   37.6828   26.5706 O.2     1  UNL1       -0.2449
     22 C          20.6587   38.6944   28.6533 C.2     1  UNL1        0.0835
     23 C          20.2179   37.9580   29.6920 C.2     1  UNL1        0.0273
     24 C          19.4383   38.5945   30.7681 C.ar    1  UNL1        0.1006
     25 C          20.1054   39.2551   31.8196 C.ar    1  UNL1        0.1179
     26 N          19.4260   39.8272   32.7844 N.ar    1  UNL1       -0.2407
     27 C          18.0879   39.7849   32.7734 C.ar    1  UNL1        0.0989
     28 C          17.3377   40.3906   33.7952 C.ar    1  UNL1        0.0206
     29 C          15.9782   40.3334   33.7600 C.ar    1  UNL1        0.0016
     30 C          15.3133   39.6810   32.7224 C.ar    1  UNL1        0.0016
     31 C          16.0046   39.0826   31.7153 C.ar    1  UNL1        0.0206
     32 C          17.4120   39.1203   31.7166 C.ar    1  UNL1        0.0989
     33 N          18.1152   38.5470   30.7385 N.ar    1  UNL1       -0.2423
@<TRIPOS>BOND
     1    16    17    1
     2    17    10    1
     3    10    15   ar
     4    10    11   ar
     5    11    12   ar
     6    12    13   ar
     7    13    14   ar
     8    13     6    1
     9    14    15   ar
    10     6     1    1
    11     6     7   am
    12     1     5   ar
    13     1     2   ar
    14     2     3   ar
    15     3     4   ar
    16     3    18    1
    17     4     5   ar
    18    18    19    1
    19    19    20    1
    20    20    21    2
    21    20    22    1
    22    22    23    2
    23    23    24    1
    24    24    33   ar
    25    24    25   ar
    26    25    26   ar
    27    26    27   ar
    28    27    32   ar
    29    27    28   ar
    30    28    29   ar
    31    29    30   ar
    32    30    31   ar
    33    31    32   ar
    34    32    33   ar
    35     7     8    2
    36     7     9    1
@<TRIPOS>MOLECULE
ZINC12529531
 32 35 0 0 0
SMALL
GASTEIGER

@<TRIPOS>ATOM
      1 N          21.2642   39.2007   29.3502 N.ar    1  UNL1       -0.3041
      2 C          20.8508   40.4343   29.0001 C.ar    1  UNL1        0.1801
      3 N          21.7783   41.0262   28.2916 N.ar    1  UNL1       -0.2063
      4 C          22.8277   40.2125   28.1497 C.ar    1  UNL1        0.1698
      5 C          22.5249   39.0304   28.8137 C.ar    1  UNL1        0.1527
      6 C          23.4752   37.9868   28.8281 C.ar    1  UNL1        0.2835
      7 O          23.2348   36.9427   29.4074 O.2     1  UNL1       -0.2651
      8 N          24.6506   38.1573   28.1880 N.ar    1  UNL1       -0.2398
      9 C          24.9285   39.3044   27.5450 C.ar    1  UNL1        0.3355
     10 O          25.9982   39.4225   26.9789 O.2     1  UNL1       -0.2461
     11 N          24.0521   40.3261   27.5114 N.ar    1  UNL1       -0.2606
     12 C          20.5156   38.2231   30.1439 C.3     1  UNL1        0.1078
     13 C          19.0905   38.7326   30.3686 C.3     1  UNL1        0.0245
     14 C          19.9545   39.4392   32.6039 C.3     1  UNL1        0.0001
     15 C          18.7923   38.7685   31.8688 C.3     1  UNL1        0.0020
     16 C          24.3940   41.5598   26.7991 C.3     1  UNL1        0.1387
     17 C          24.5748   42.6792   27.7916 C.ar    1  UNL1        0.0006
     18 C          25.5839   42.6112   28.7340 C.ar    1  UNL1       -0.0024
     19 C          25.7527   43.6403   29.6414 C.ar    1  UNL1       -0.0003
     20 C          24.9060   44.7325   29.6131 C.ar    1  UNL1       -0.0000
     21 C          23.8937   44.7982   28.6741 C.ar    1  UNL1       -0.0003
     22 C          23.7281   43.7715   27.7633 C.ar    1  UNL1       -0.0024
     23 C          25.6391   37.0760   28.1943 C.3     1  UNL1        0.1826
     24 C          26.2665   36.9769   29.5609 C.2     1  UNL1        0.1962
     25 O          26.7178   37.9690   30.0947 O.2     1  UNL1       -0.2893
     26 C          26.3314   35.6844   30.2444 C.ar    1  UNL1        0.0388
     27 C          27.0108   34.5535   29.6588 C.ar    1  UNL1        0.0052
     28 C          27.0154   33.4078   30.3653 C.ar    1  UNL1        0.0074
     29 S          26.1028   33.8323   31.8346 S.2     1  UNL1       -0.0955
     30 C          25.7490   35.4909   31.4849 C.ar    1  UNL1        0.0101
     31 C          24.9886   36.4830   32.3267 C.3     1  UNL1        0.0382
     32 C          27.6415   32.0862   30.0013 C.3     1  UNL1        0.0381
@<TRIPOS>BOND
     1    14    15    1
     2    15    13    1
     3    13    12    1
     4    12     1    1
     5     1     5   ar
     6     1     2   ar
     7     2     3   ar
     8     3     4   ar
     9     4    11   ar
    10     4     5   ar
    11     5     6   ar
    12     6     7    2
    13     6     8   ar
    14     8     9   ar
    15     8    23    1
    16     9    10    2
    17     9    11   ar
    18    11    16    1
    19    16    17    1
    20    17    22   ar
    21    17    18   ar
    22    18    19   ar
    23    19    20   ar
    24    20    21   ar
    25    21    22   ar
    26    23    24    1
    27    24    25    2
    28    24    26    1
    29    26    30   ar
    30    26    27   ar
    31    27    28   ar
    32    28    29   ar
    33    28    32    1
    34    29    30   ar
    35    30    31    1
@<TRIPOS>MOLECULE
ZINC23845969
 23 25 0 0 0
SMALL
GASTEIGER

@<TRIPOS>ATOM
      1 C          21.4282   37.4544   28.7245 C.3     1  UNL1        0.2476
      2 N          20.5636   38.0383   29.7530 N.ar    1  UNL1       -0.1294
      3 C          20.9688   38.6002   30.9124 C.ar    1  UNL1        0.3746
      4 O          22.1162   38.7192   31.3037 O.2     1  UNL1       -0.2426
      5 N          19.8497   39.0009   31.5535 N.ar    1  UNL1       -0.1532
      6 N          18.7583   38.6717   30.7404 N.ar    1  UNL1       -0.0371
      7 N          19.1665   38.1214   29.7110 N.ar    1  UNL1       -0.0370
      8 C          19.7918   39.6343   32.7993 C.ar    1  UNL1        0.1185
      9 C          20.7091   39.6323   33.8064 C.ar    1  UNL1        0.0266
     10 C          20.4319   40.3388   34.9616 C.ar    1  UNL1        0.0091
     11 C          19.2589   41.0106   35.0574 C.ar    1  UNL1        0.0370
     12 S          18.5001   40.6618   33.4795 S.2     1  UNL1       -0.0673
     13 N          21.7292   38.4680   27.7046 N.4     1  UNL1        0.2990
     14 H          21.0756   39.2411   27.8286 H       1  UNL1        0.2093
     15 C          22.9009   37.6651   25.7097 C.3     1  UNL1        0.0671
     16 C          21.5373   37.9272   26.3523 C.3     1  UNL1        0.1081
     17 C          23.0897   38.9957   27.8725 C.3     1  UNL1        0.1415
     18 C          23.0235   40.4741   28.1572 C.ar    1  UNL1        0.0630
     19 C          21.9403   41.2447   28.4199 C.ar    1  UNL1        0.0093
     20 C          22.1189   42.5956   28.6544 C.ar    1  UNL1        0.0183
     21 C          23.3739   43.1090   28.6143 C.ar    1  UNL1        0.0868
     22 S          24.3527   41.6629   28.2434 S.2     1  UNL1       -0.0741
     23 CL         23.8940   44.7461   28.8659 Cl      1  UNL1       -0.0752
@<TRIPOS>UNITY_ATOM_ATTR
13 1
charge 1
@<TRIPOS>BOND
     1    15    16    1
     2    16    13    1
     3    13    17    1
     4    13     1    1
     5    17    18    1
     6    18    22   ar
     7    18    19   ar
     8    19    20   ar
     9    20    21   ar
    10    21    22   ar
    11    21    23    1
    12     1     2    1
    13     2     7   ar
    14     2     3   ar
    15     3     4    2
    16     3     5   ar
    17     5     6   ar
    18     5     8    1
    19     6     7   ar
    20     8    12   ar
    21     8     9   ar
    22     9    10   ar
    23    10    11   ar
    24    11    12   ar
    25    13    14    1
@<TRIPOS>MOLECULE
ZINC06757008
 26 27 0 0 0
SMALL
GASTEIGER

@<TRIPOS>ATOM
      1 C          23.2829   38.5902   27.4244 C.2     1  UNL1        0.2252
      2 O          23.5718   37.5339   26.9035 O.2     1  UNL1       -0.2749
      3 N          22.5882   38.6045   28.5793 N.am    1  UNL1       -0.2760
      4 C          22.3289   39.8665   29.2888 C.3     1  UNL1        0.1149
      5 C          20.8233   39.9519   29.5858 C.3     1  UNL1        0.1137
      6 N          20.4011   38.7400   30.3007 N.pl3   1  UNL1       -0.2899
      7 C          20.5841   37.5412   29.4716 C.3     1  UNL1        0.1137
      8 C          22.0745   37.3578   29.1666 C.3     1  UNL1        0.1149
      9 C          19.0892   38.8497   30.7321 C.ar    1  UNL1        0.1301
     10 C          18.8037   39.2189   32.0485 C.ar    1  UNL1        0.0227
     11 C          17.4801   39.3144   32.4299 C.ar    1  UNL1        0.0594
     12 N          16.5307   39.0548   31.5418 N.ar    1  UNL1       -0.2352
     13 C          16.8326   38.7088   30.3068 C.ar    1  UNL1        0.1405
     14 N          18.0816   38.6107   29.8981 N.ar    1  UNL1       -0.2164
     15 C          15.7186   38.4239   29.3326 C.3     1  UNL1        0.0737
     16 C          17.1190   39.7095   33.8387 C.3     1  UNL1        0.0519
     17 C          19.9125   39.5053   33.0281 C.3     1  UNL1        0.0263
     18 C          19.8055   40.9533   33.5104 C.3     1  UNL1        0.0048
     19 C          19.7931   38.5591   34.2245 C.3     1  UNL1        0.0048
     20 C          23.7059   39.8870   26.7836 C.3     1  UNL1        0.0767
     21 C          23.6977   39.7303   25.2616 C.3     1  UNL1        0.0091
     22 C          24.5578   40.8274   24.6313 C.3     1  UNL1        0.0005
     23 C          25.1166   40.2506   27.2512 C.3     1  UNL1        0.0091
     24 C          25.0378   41.3833   28.2767 C.3     1  UNL1        0.0005
     25 C          23.6846   43.4453   28.6764 C.3     1  UNL1        0.0000
     26 C          24.4273   42.6235   27.6209 C.3     1  UNL1        0.0000
@<TRIPOS>BOND
     1    25    26    1
     2    26    24    1
     3    24    23    1
     4    23    20    1
     5    20    21    1
     6    20     1    1
     7    21    22    1
     8     1     2    2
     9     1     3   am
    10     3     8    1
    11     3     4    1
    12     4     5    1
    13     5     6    1
    14     6     7    1
    15     6     9    1
    16     7     8    1
    17     9    14   ar
    18     9    10   ar
    19    10    11   ar
    20    10    17    1
    21    11    12   ar
    22    11    16    1
    23    12    13   ar
    24    13    14   ar
    25    13    15    1
    26    17    18    1
    27    17    19    1
@<TRIPOS>MOLECULE
ZINC04600066
 27 28 0 0 0
SMALL
GASTEIGER

@<TRIPOS>ATOM
      1 C          25.4585   39.1236   29.1010 C.ar    1  UNL1        0.0750
      2 C          25.9829   38.1509   29.9546 C.ar    1  UNL1        0.0021
      3 C          25.1372   37.2595   30.5815 C.ar    1  UNL1       -0.0229
      4 C          23.7731   37.3207   30.3575 C.ar    1  UNL1       -0.0086
      5 C          23.2473   38.2784   29.5084 C.ar    1  UNL1       -0.0229
      6 C          24.0810   39.1797   28.8795 C.ar    1  UNL1        0.0021
      7 C          21.7603   38.3373   29.2706 C.3     1  UNL1        0.0189
      8 C          21.2765   36.9900   28.7309 C.3     1  UNL1        0.0044
      9 C          21.0451   38.6460   30.5873 C.3     1  UNL1        0.0044
     10 C          21.4501   39.4360   28.2519 C.3     1  UNL1        0.0044
     11 C          25.7008   36.2129   31.5078 C.3     1  UNL1        0.0189
     12 C          27.1330   36.5898   31.8919 C.3     1  UNL1        0.0044
     13 C          24.8391   36.1313   32.7694 C.3     1  UNL1        0.0044
     14 C          25.7024   34.8552   30.8025 C.3     1  UNL1        0.0044
     15 C          26.3576   40.0851   28.4307 C.2     1  UNL1        0.3413
     16 O          27.2525   40.6175   29.0563 O.2     1  UNL1       -0.2449
     17 O          26.1850   40.3717   27.1258 O.3     1  UNL1       -0.4430
     18 C          27.6194   41.6837   25.6591 C.3     1  UNL1        0.0538
     19 C          26.4993   41.7239   26.7007 C.3     1  UNL1        0.2237
     20 C          25.2547   42.3678   26.0865 C.3     1  UNL1        0.1496
     21 C          25.8328   43.9379   27.8380 C.3     1  UNL1        0.1382
     22 C          25.2625   45.0053   28.7757 C.3     1  UNL1        0.2029
     23 O          24.2467   44.4198   29.5945 O.3     1  UNL1       -0.3412
     24 C          23.1675   43.8467   28.8513 C.3     1  UNL1        0.2029
     25 C          23.7165   42.7675   27.9144 C.3     1  UNL1        0.1382
     26 N          24.7290   43.3793   27.0287 N.4     1  UNL1        0.2825
     27 H          24.2931   44.1321   26.4960 H       1  UNL1        0.2070
@<TRIPOS>UNITY_ATOM_ATTR
26 1
charge 1
@<TRIPOS>BOND
     1    18    19    1
     2    19    20    1
     3    19    17    1
     4    20    26    1
     5    21    22    1
     6    21    26    1
     7    22    23    1
     8    23    24    1
     9    24    25    1
    10    25    26    1
    11    17    15    1
    12    15    16    2
    13    15     1    1
    14     1     6   ar
    15     1     2   ar
    16     2     3   ar
    17     3     4   ar
    18     3    11    1
    19     4     5   ar
    20     5     6   ar
    21     5     7    1
    22     7     8    1
    23     7     9    1
    24     7    10    1
    25    11    12    1
    26    11    13    1
    27    11    14    1
    28    26    27    1
@<TRIPOS>MOLECULE
ZINC05409342
 27 29 0 0 0
SMALL
GASTEIGER

@<TRIPOS>ATOM
      1 C          15.1009   38.6572   30.8172 C.ar    1  UNL1        0.1453
      2 C          14.7618   39.2096   32.0330 C.ar    1  UNL1        0.0406
      3 C          15.9557   39.5043   32.6942 C.ar    1  UNL1        0.0406
      4 C          16.9847   39.1188   31.8530 C.ar    1  UNL1        0.1455
      5 O          16.4421   38.6162   30.7250 O.2     1  UNL1       -0.4535
      6 C          12.3748   37.3267   27.8561 C.ar    1  UNL1        0.0756
      7 C          11.9104   37.6733   29.1286 C.ar    1  UNL1        0.0065
      8 C          12.7886   38.1021   30.0830 C.ar    1  UNL1        0.0032
      9 C          14.1526   38.1943   29.7872 C.ar    1  UNL1        0.0346
     10 C          14.6161   37.8530   28.5124 C.ar    1  UNL1        0.0032
     11 C          13.7381   37.4192   27.5600 C.ar    1  UNL1        0.0065
     12 C          11.4256   36.8635   26.8253 C.2     1  UNL1        0.3412
     13 O          10.7076   35.9087   27.0459 O.2     1  UNL1       -0.2449
     14 O          11.3556   37.4997   25.6395 O.3     1  UNL1       -0.4454
     15 C           9.1765   38.2805   24.8831 C.3     1  UNL1        0.0513
     16 C          10.4908   38.6637   25.5661 C.3     1  UNL1        0.2089
     17 C          18.3658   39.2369   32.1262 C.2     1  UNL1        0.0408
     18 C          19.2786   38.8145   31.2107 C.2     1  UNL1        0.0452
     19 C          20.6597   38.9380   31.4814 C.2     1  UNL1        0.1957
     20 O          21.0357   39.2647   32.5933 O.2     1  UNL1       -0.2866
     21 C          21.6493   38.6704   30.4147 C.ar    1  UNL1        0.0389
     22 C          21.3730   39.0323   29.0951 C.ar    1  UNL1        0.0029
     23 C          22.3027   38.7855   28.1064 C.ar    1  UNL1       -0.0042
     24 C          23.5021   38.1702   28.4183 C.ar    1  UNL1       -0.0218
     25 C          23.7798   37.8034   29.7234 C.ar    1  UNL1       -0.0042
     26 C          22.8614   38.0499   30.7226 C.ar    1  UNL1        0.0029
     27 C          24.5103   37.8977   27.3319 C.3     1  UNL1        0.0310
@<TRIPOS>BOND
     1    15    16    1
     2    16    14    1
     3    14    12    1
     4    12    13    2
     5    12     6    1
     6     6    11   ar
     7     6     7   ar
     8     7     8   ar
     9     8     9   ar
    10     9    10   ar
    11     9     1    1
    12    10    11   ar
    13     1     5   ar
    14     1     2   ar
    15     2     3   ar
    16     3     4   ar
    17     4     5   ar
    18     4    17    1
    19    17    18    2
    20    18    19    1
    21    19    20    2
    22    19    21    1
    23    21    26   ar
    24    21    22   ar
    25    22    23   ar
    26    23    24   ar
    27    24    25   ar
    28    24    27    1
    29    25    26   ar
@<TRIPOS>MOLECULE
ZINC29586289
 26 28 0 0 0
SMALL
GASTEIGER

@<TRIPOS>ATOM
      1 N          21.6446   39.7756   28.2131 N.ar    1  UNL1       -0.1769
      2 C          22.6509   39.4472   27.3772 C.ar    1  UNL1        0.1889
      3 S          22.7870   37.9938   26.4829 S.2     1  UNL1       -0.0107
      4 N          23.5314   40.4676   27.3746 N.ar    1  UNL1       -0.2674
      5 C          23.0545   41.4536   28.2208 C.ar    1  UNL1        0.2037
      6 N          21.9216   41.0485   28.7300 N.ar    1  UNL1       -0.1417
      7 C          24.7215   40.5232   26.6378 C.ar    1  UNL1        0.0673
      8 C          25.8987   40.0232   27.1787 C.ar    1  UNL1        0.0176
      9 C          27.0715   40.0846   26.4519 C.ar    1  UNL1        0.0015
     10 C          27.0722   40.6336   25.1827 C.ar    1  UNL1        0.0001
     11 C          25.9006   41.1282   24.6395 C.ar    1  UNL1        0.0015
     12 C          24.7255   41.0742   25.3632 C.ar    1  UNL1        0.0176
     13 C          23.7126   42.7406   28.5002 C.ar    1  UNL1        0.1814
     14 C          23.2369   43.9717   28.1635 C.ar    1  UNL1        0.0439
     15 C          24.1806   44.9104   28.6231 C.ar    1  UNL1        0.0439
     16 C          25.1789   44.2156   29.2043 C.ar    1  UNL1        0.1798
     17 O          24.8933   42.9057   29.1285 O.2     1  UNL1       -0.4473
     18 C          20.4717   38.9533   28.5202 C.3     1  UNL1        0.2431
     19 N          20.5972   38.4093   29.8789 N.4     1  UNL1        0.2956
     20 C          22.0059   38.3379   30.2894 C.3     1  UNL1        0.1692
     21 H          20.2240   37.4601   29.8721 H       1  UNL1        0.2089
     22 C          19.8093   39.1972   30.8363 C.3     1  UNL1        0.0578
     23 C          18.4587   38.5165   31.0677 C.3     1  UNL1        0.0609
     24 C          20.5660   39.2931   32.1627 C.3     1  UNL1        0.0551
     25 C          20.3172   39.4391   34.6444 C.3     1  UNL1        0.0002
     26 C          19.5691   39.2549   33.3225 C.3     1  UNL1        0.0059
@<TRIPOS>UNITY_ATOM_ATTR
19 1
charge 1
@<TRIPOS>BOND
     1    25    26    1
     2    26    24    1
     3    24    22    1
     4    22    23    1
     5    22    19    1
     6    19    20    1
     7    19    18    1
     8    18     1    1
     9     1     6   ar
    10     1     2   ar
    11     2     3    2
    12     2     4   ar
    13     4     5   ar
    14     4     7    1
    15     5     6   ar
    16     5    13    1
    17    13    17   ar
    18    13    14   ar
    19    14    15   ar
    20    15    16   ar
    21    16    17   ar
    22     7    12   ar
    23     7     8   ar
    24     8     9   ar
    25     9    10   ar
    26    10    11   ar
    27    11    12   ar
    28    19    21    1
@<TRIPOS>MOLECULE
ZINC18276597
 25 27 0 0 0
SMALL
GASTEIGER

@<TRIPOS>ATOM
      1 C          21.4369   37.6255   28.2917 C.2     1  UNL1        0.0684
      2 N          20.1810   37.7927   28.5726 N.2     1  UNL1       -0.1777
      3 N          20.0116   38.2818   29.8676 N.am    1  UNL1       -0.1348
      4 C          21.2108   38.4427   30.4628 C.2     1  UNL1        0.2602
      5 O          21.4199   38.8519   31.5922 O.2     1  UNL1       -0.2719
      6 C          22.2134   38.0258   29.4748 C.3     1  UNL1        0.1514
      7 C          18.7872   38.5617   30.4577 C.ar    1  UNL1        0.1888
      8 N          17.5883   38.5207   29.9253 N.ar    1  UNL1       -0.2224
      9 C          16.4725   38.8168   30.6256 C.ar    1  UNL1        0.0893
     10 C          15.1311   38.8057   30.1771 C.ar    1  UNL1        0.0197
     11 C          14.1072   39.1414   31.0235 C.ar    1  UNL1        0.0016
     12 C          14.3449   39.5022   32.3421 C.ar    1  UNL1        0.0006
     13 C          15.6441   39.5235   32.8146 C.ar    1  UNL1        0.0081
     14 C          16.6765   39.1886   31.9742 C.ar    1  UNL1        0.0498
     15 S          18.4425   39.0773   32.1340 S.2     1  UNL1       -0.0495
     16 C          23.5897   38.0118   29.6245 C.2     1  UNL1        0.0456
     17 C          24.4213   39.1312   29.0531 C.3     1  UNL1        0.0477
     18 N          24.1862   36.9964   30.2816 N.2     1  UNL1       -0.2781
     19 C          25.6425   36.9815   30.4400 C.3     1  UNL1        0.1247
     20 C          26.0223   36.0284   31.5749 C.3     1  UNL1        0.0243
     21 C          24.9358   36.0590   32.6518 C.3     1  UNL1        0.0021
     22 C          26.1548   34.6071   31.0245 C.3     1  UNL1        0.0021
     23 C          21.9978   37.1146   26.9896 C.3     1  UNL1        0.0438
     24 C          23.7374   38.1724   25.5414 C.3     1  UNL1        0.0004
     25 C          22.3065   38.2967   26.0686 C.3     1  UNL1        0.0060
@<TRIPOS>BOND
     1    24    25    1
     2    25    23    1
     3    23     1    1
     4     1     6    1
     5     1     2    2
     6     2     3    1
     7     3     4   am
     8     3     7    1
     9     4     5    2
    10     4     6    1
    11     6    16    1
    12    16    17    1
    13    16    18    2
    14    18    19    1
    15    19    20    1
    16    20    21    1
    17    20    22    1
    18     7    15   ar
    19     7     8   ar
    20     8     9   ar
    21     9    14   ar
    22     9    10   ar
    23    10    11   ar
    24    11    12   ar
    25    12    13   ar
    26    13    14   ar
    27    14    15   ar
@<TRIPOS>MOLECULE
ZINC05598232
 23 24 0 0 0
SMALL
GASTEIGER

@<TRIPOS>ATOM
      1 N          12.1477   37.4350   26.1680 N.pl3   1  UNL1       -0.2146
      2 H          12.6430   37.7943   25.3967 H       1  UNL1        0.1765
      3 C          14.2143   37.9070   29.1048 C.ar    1  UNL1        0.0787
      4 C          13.2198   37.8437   30.0234 C.ar    1  UNL1        0.0534
      5 S          11.8042   37.5874   28.9635 S.2     1  UNL1       -0.0499
      6 C          12.6526   37.5902   27.4485 C.ar    1  UNL1        0.1786
      7 N          13.9029   37.7721   27.8306 N.ar    1  UNL1       -0.2267
      8 C          15.6441   38.1205   29.5305 C.3     1  UNL1        0.1557
      9 C          15.7048   39.2301   30.5484 C.2     1  UNL1        0.3231
     10 O          15.2791   40.3267   30.2728 O.2     1  UNL1       -0.2497
     11 O          16.2319   39.0001   31.7613 O.3     1  UNL1       -0.4482
     12 C          16.0226   40.3490   33.7780 C.3     1  UNL1        0.0513
     13 C          15.3832   39.2636   32.9096 C.3     1  UNL1        0.2086
     14 N          10.9323   36.7666   25.9705 N.2     1  UNL1       -0.1781
     15 C          10.0012   37.3123   25.2486 C.2     1  UNL1        0.1192
     16 C          10.2704   38.5681   24.5250 C.ar    1  UNL1        0.0418
     17 C          10.1894   39.7943   25.1916 C.ar    1  UNL1        0.0600
     18 C          10.4471   40.9658   24.5080 C.ar    1  UNL1        0.0115
     19 C          10.7755   40.9291   23.1644 C.ar    1  UNL1        0.0017
     20 C          10.8524   39.7199   22.4965 C.ar    1  UNL1        0.0115
     21 C          10.6023   38.5395   23.1672 C.ar    1  UNL1        0.0600
     22 CL         10.6990   37.0236   22.3268 Cl      1  UNL1       -0.0822
     23 CL          9.7718   39.8434   26.8760 Cl      1  UNL1       -0.0822
@<TRIPOS>BOND
     1    12    13    1
     2    13    11    1
     3    11     9    1
     4     9    10    2
     5     9     8    1
     6     8     3    1
     7     3     7   ar
     8     3     4   ar
     9     4     5   ar
    10     5     6   ar
    11     6     7   ar
    12     6     1    1
    13     1    14    1
    14    14    15    2
    15    15    16    1
    16    16    21   ar
    17    16    17   ar
    18    17    18   ar
    19    17    23    1
    20    18    19   ar
    21    19    20   ar
    22    20    21   ar
    23    21    22    1
    24     1     2    1
@<TRIPOS>MOLECULE
ZINC03323653
 26 28 0 0 0
SMALL
GASTEIGER

@<TRIPOS>ATOM
      1 C          20.6232   38.7495   29.9349 C.2     1  UNL1        0.1401
      2 N          19.5077   38.5056   29.3263 N.2     1  UNL1       -0.0810
      3 C          23.4455   39.4158   27.5488 C.ar    1  UNL1        0.1726
      4 C          22.2435   39.5401   28.2194 C.ar    1  UNL1        0.0417
      5 C          21.9022   38.6180   29.2117 C.ar    1  UNL1        0.0256
      6 C          22.7776   37.5747   29.5216 C.ar    1  UNL1        0.0050
      7 C          23.9751   37.4566   28.8488 C.ar    1  UNL1        0.0403
      8 C          24.3140   38.3725   27.8631 C.ar    1  UNL1        0.1779
      9 C          24.2552   41.5877   27.0161 C.3     1  UNL1        0.2526
     10 O          23.7807   40.3115   26.5818 O.3     1  UNL1       -0.4684
     11 O          25.4958   38.2520   27.2030 O.3     1  UNL1       -0.4205
     12 C          25.5713   37.2516   26.1854 C.3     1  UNL1        0.5087
     13 F          24.2999   37.0444   25.6396 F       1  UNL1       -0.1550
     14 F          26.4473   37.6745   25.1798 F       1  UNL1       -0.1550
     15 O          18.2800   38.6317   30.0204 O.2     1  UNL1       -0.3723
     16 C          18.3378   38.2111   31.3848 C.3     1  UNL1        0.2651
     17 C          17.7554   39.2852   32.2668 C.ar    1  UNL1        0.0240
     18 C          16.4676   39.6904   32.0921 C.ar    1  UNL1       -0.0006
     19 C          15.9119   40.6820   32.8978 C.ar    1  UNL1       -0.0002
     20 C          16.6406   41.2743   33.8833 C.ar    1  UNL1       -0.0000
     21 C          17.9731   40.8821   34.0940 C.ar    1  UNL1       -0.0002
     22 C          18.5369   39.8697   33.2776 C.ar    1  UNL1       -0.0004
     23 C          19.8713   39.4805   33.4856 C.ar    1  UNL1       -0.0002
     24 C          20.5999   40.0733   34.4704 C.ar    1  UNL1       -0.0000
     25 C          20.0442   41.0656   35.2760 C.ar    1  UNL1       -0.0000
     26 C          18.7569   41.4708   35.1012 C.ar    1  UNL1       -0.0000
@<TRIPOS>BOND
     1     9    10    1
     2    10     3    1
     3     3     8   ar
     4     3     4   ar
     5     4     5   ar
     6     5     6   ar
     7     5     1    1
     8     6     7   ar
     9     7     8   ar
    10     8    11    1
    11    11    12    1
    12    12    13    1
    13    12    14    1
    14     1     2    2
    15     2    15    1
    16    15    16    1
    17    16    17    1
    18    17    22   ar
    19    17    18   ar
    20    18    19   ar
    21    19    20   ar
    22    20    21   ar
    23    21    26   ar
    24    21    22   ar
    25    22    23   ar
    26    23    24   ar
    27    24    25   ar
    28    25    26   ar
@<TRIPOS>MOLECULE
ZINC05973396
 22 23 0 0 0
SMALL
GASTEIGER

@<TRIPOS>ATOM
      1 C          25.9526   39.0193   28.9122 C.ar    1  UNL1        0.2604
      2 C          25.4226   37.8995   28.2802 C.ar    1  UNL1        0.1462
      3 N          26.2553   36.9146   28.0185 N.ar    1  UNL1       -0.1868
      4 S          27.6532   37.3952   28.5629 S.2     1  UNL1        0.1194
      5 N          27.2404   38.9317   29.1759 N.ar    1  UNL1       -0.1537
      6 C          23.9875   37.8214   27.9128 C.ar    1  UNL1        0.0441
      7 C          23.5828   38.1011   26.6079 C.ar    1  UNL1        0.0601
      8 C          22.2442   38.0327   26.2733 C.ar    1  UNL1        0.0115
      9 C          21.3064   37.6867   27.2292 C.ar    1  UNL1        0.0017
     10 C          21.7016   37.4082   28.5250 C.ar    1  UNL1        0.0115
     11 C          23.0371   37.4736   28.8720 C.ar    1  UNL1        0.0601
     12 CL         23.5313   37.1232   30.4989 Cl      1  UNL1       -0.0822
     13 CL         24.7585   38.5355   25.4067 Cl      1  UNL1       -0.0822
     14 O          25.2052   40.1081   29.2347 O.3     1  UNL1       -0.3898
     15 N          24.2073   41.8062   27.9835 N.am    1  UNL1       -0.2439
     16 C          22.8847   41.2481   28.2756 C.3     1  UNL1        0.1183
     17 C          25.3154   41.1845   28.4330 C.2     1  UNL1        0.4108
     18 O          26.4139   41.5952   28.1148 O.2     1  UNL1       -0.2257
     19 C          24.3254   43.0401   27.2027 C.3     1  UNL1        0.0968
     20 C          23.6763   44.1936   27.9703 C.3     1  UNL1        0.0216
     21 C          25.1001   44.7034   29.9591 C.3     1  UNL1        0.0001
     22 C          24.7655   45.1146   28.5238 C.3     1  UNL1        0.0018
@<TRIPOS>BOND
     1    21    22    1
     2    22    20    1
     3    20    19    1
     4    19    15    1
     5    15    16    1
     6    15    17   am
     7    17    18    2
     8    17    14    1
     9    14     1    1
    10     1     5   ar
    11     1     2   ar
    12     2     3   ar
    13     2     6    1
    14     3     4   ar
    15     4     5   ar
    16     6    11   ar
    17     6     7   ar
    18     7     8   ar
    19     7    13    1
    20     8     9   ar
    21     9    10   ar
    22    10    11   ar
    23    11    12    1
@<TRIPOS>MOLECULE
ZINC04188117
 24 26 0 0 0
SMALL
GASTEIGER

@<TRIPOS>ATOM
      1 C          27.1353   38.7830   28.6142 C.3     1  UNL1        0.0314
      2 C          26.1085   38.0630   29.4500 C.ar    1  UNL1       -0.0132
      3 C          26.4745   37.0525   30.2522 C.ar    1  UNL1        0.0053
      4 S          24.9407   36.5457   31.0061 S.2     1  UNL1       -0.0725
      5 C          23.8514   37.7064   30.2216 C.ar    1  UNL1        0.1168
      6 C          24.7108   38.4554   29.3956 C.ar    1  UNL1        0.0763
      7 C          24.0887   39.4852   28.6216 C.ar    1  UNL1        0.2640
      8 O          24.7529   40.1820   27.8737 O.2     1  UNL1       -0.2669
      9 N          22.7617   39.6780   28.7335 N.ar    1  UNL1       -0.2730
     10 C          22.0011   38.9039   29.5612 C.ar    1  UNL1        0.1743
     11 N          22.5471   37.9452   30.2816 N.ar    1  UNL1       -0.2158
     12 C          27.8530   36.4821   30.4656 C.3     1  UNL1        0.0379
     13 S          20.2657   39.1899   29.6674 S.3     1  UNL1       -0.0724
     14 C          19.9855   38.7801   31.4079 C.3     1  UNL1        0.0913
     15 C          18.5319   38.9900   31.7458 C.ar    1  UNL1       -0.0109
     16 C          18.1693   39.3957   33.0165 C.ar    1  UNL1       -0.0034
     17 C          16.8363   39.5934   33.3248 C.ar    1  UNL1       -0.0003
     18 C          15.8653   39.3748   32.3656 C.ar    1  UNL1       -0.0000
     19 C          16.2275   38.9636   31.0966 C.ar    1  UNL1       -0.0003
     20 C          17.5608   38.7714   30.7865 C.ar    1  UNL1       -0.0034
     21 C          22.1202   40.7348   27.9475 C.3     1  UNL1        0.1429
     22 C          22.1994   42.0580   28.7115 C.3     1  UNL1        0.1668
     23 O          22.9967   42.9868   27.9741 O.3     1  UNL1       -0.3490
     24 C          23.3520   44.1596   28.7091 C.3     1  UNL1        0.1742
@<TRIPOS>BOND
     1     1     2    1
     2     2     6   ar
     3     2     3   ar
     4     3     4   ar
     5     3    12    1
     6     4     5   ar
     7     5    11   ar
     8     5     6   ar
     9     6     7   ar
    10     7     8    2
    11     7     9   ar
    12     9    10   ar
    13     9    21    1
    14    10    11   ar
    15    10    13    1
    16    13    14    1
    17    14    15    1
    18    15    20   ar
    19    15    16   ar
    20    16    17   ar
    21    17    18   ar
    22    18    19   ar
    23    19    20   ar
    24    21    22    1
    25    22    23    1
    26    23    24    1
@<TRIPOS>MOLECULE
ZINC01935608
 23 25 0 0 0
SMALL
GASTEIGER

@<TRIPOS>ATOM
      1 C          21.9298   39.1635   27.4454 C.ar    1  UNL1        0.1105
      2 C          23.0731   39.9635   27.1649 C.ar    1  UNL1        0.0436
      3 C          23.4463   41.2595   27.7339 C.ar    1  UNL1       -0.0162
      4 C          24.5945   41.8129   27.2936 C.ar    1  UNL1        0.0048
      5 S          25.2399   40.6604   26.1111 S.2     1  UNL1       -0.0726
      6 C          23.9632   39.4330   26.2102 C.ar    1  UNL1        0.1138
      7 N          23.7359   38.2727   25.6254 N.ar    1  UNL1       -0.2173
      8 C          22.6571   37.5756   25.9258 C.ar    1  UNL1        0.1998
      9 N          21.7796   38.0107   26.8120 N.ar    1  UNL1       -0.2176
     10 C          25.1917   43.1208   27.7158 C.3     1  UNL1        0.0327
     11 C          24.4933   43.5797   29.0036 C.3     1  UNL1        0.0052
     12 C          22.9792   43.4470   28.8154 C.3     1  UNL1        0.0050
     13 C          22.5886   41.9692   28.7780 C.3     1  UNL1        0.0267
     14 C          24.8490   45.0405   29.2877 C.3     1  UNL1        0.0004
     15 S          20.7303   39.7003   28.6192 S.3     1  UNL1       -0.0844
     16 C          20.8173   38.3351   29.8044 C.3     1  UNL1        0.1519
     17 C          22.2420   38.2241   30.3508 C.3     1  UNL1        0.0239
     18 C          19.8622   38.5947   30.9407 C.2     1  UNL1        0.3271
     19 O          18.8899   37.8920   31.0853 O.2     1  UNL1       -0.2492
     20 O          20.0915   39.6066   31.7923 O.3     1  UNL1       -0.4479
     21 C          19.2561   39.6725   32.9781 C.3     1  UNL1        0.2085
     22 C          20.5002   40.3670   35.0304 C.3     1  UNL1        0.0040
     23 C          20.0478   39.1726   34.1881 C.3     1  UNL1        0.0474
@<TRIPOS>BOND
     1    22    23    1
     2    23    21    1
     3    21    20    1
     4    20    18    1
     5    18    19    2
     6    18    16    1
     7    16    17    1
     8    16    15    1
     9    15     1    1
    10     1     9   ar
    11     1     2   ar
    12     2     6   ar
    13     2     3   ar
    14     3    13    1
    15     3     4   ar
    16     4     5   ar
    17     4    10    1
    18     5     6   ar
    19     6     7   ar
    20     7     8   ar
    21     8     9   ar
    22    10    11    1
    23    11    12    1
    24    11    14    1
    25    12    13    1
@<TRIPOS>MOLECULE
ZINC02572995
 26 28 0 0 0
SMALL
GASTEIGER

@<TRIPOS>ATOM
      1 C          11.5284   36.5845   26.4710 C.3     1  UNL1        0.0817
      2 C          11.0166   36.3815   27.9012 C.3     1  UNL1        0.1519
      3 O          11.7097   37.2850   28.7723 O.3     1  UNL1       -0.3267
      4 C          13.1309   37.1298   28.7535 C.3     1  UNL1        0.2600
      5 O          13.6147   37.3329   27.4236 O.3     1  UNL1       -0.3267
      6 C          13.0536   36.4338   26.4621 C.3     1  UNL1        0.1519
      7 C          10.4677   40.4927   25.1117 C.ar    1  UNL1       -0.0222
      8 C          10.0662   40.0635   26.3628 C.ar    1  UNL1       -0.0046
      9 C          10.4138   38.8006   26.8048 C.ar    1  UNL1       -0.0044
     10 C          11.1544   37.9634   25.9916 C.ar    1  UNL1       -0.0176
     11 C          11.5526   38.3911   24.7388 C.ar    1  UNL1       -0.0044
     12 C          11.2091   39.6558   24.2989 C.ar    1  UNL1       -0.0046
     13 C          10.0930   41.8713   24.6318 C.3     1  UNL1        0.0264
     14 C          10.4977   42.0282   23.1647 C.3     1  UNL1        0.0047
     15 C          11.9260   42.5707   23.0849 C.3     1  UNL1        0.0003
     16 C          12.6509   41.9267   21.9014 C.3     1  UNL1        0.0000
     17 C          11.5268   42.8940   19.8906 C.3     1  UNL1        0.0000
     18 C          11.6495   41.6533   20.7775 C.3     1  UNL1        0.0000
     19 C          13.7591   38.1419   29.6765 C.ar    1  UNL1        0.0336
     20 C          15.0527   38.5750   29.4455 C.ar    1  UNL1        0.0012
     21 C          15.6321   39.5050   30.2837 C.ar    1  UNL1        0.0101
     22 C          14.9135   40.0014   31.3732 C.ar    1  UNL1        0.0684
     23 C          13.6105   39.5559   31.6034 C.ar    1  UNL1        0.0101
     24 C          13.0416   38.6293   30.7545 C.ar    1  UNL1        0.0012
     25 C          15.5107   40.9628   32.2507 C.1     1  UNL1        0.1004
     26 N          15.9845   41.7253   32.9467 N.1     1  UNL1       -0.1908
@<TRIPOS>BOND
     1    17    18    1
     2    18    16    1
     3    16    15    1
     4    15    14    1
     5    14    13    1
     6    13     7    1
     7     7    12   ar
     8     7     8   ar
     9     8     9   ar
    10     9    10   ar
    11    10    11   ar
    12    10     1    1
    13    11    12   ar
    14     1     6    1
    15     1     2    1
    16     2     3    1
    17     3     4    1
    18     4     5    1
    19     4    19    1
    20     5     6    1
    21    19    24   ar
    22    19    20   ar
    23    20    21   ar
    24    21    22   ar
    25    22    23   ar
    26    22    25    1
    27    23    24   ar
    28    25    26    3
@<TRIPOS>MOLECULE
ZINC27814115
 25 27 0 0 0
SMALL
GASTEIGER

@<TRIPOS>ATOM
      1 C          22.6800   39.6102   27.3274 C.ar    1  UNL1        0.2104
      2 N          23.7480   39.6552   26.5238 N.ar    1  UNL1       -0.2050
      3 C          24.4193   40.7575   26.7405 C.ar    1  UNL1        0.1424
      4 N          23.7851   41.4534   27.7033 N.ar    1  UNL1       -0.2142
      5 N          22.6592   40.6960   28.0652 N.ar    1  UNL1       -0.1379
      6 C          24.1695   42.6916   28.2348 C.ar    1  UNL1        0.0842
      7 C          23.4615   43.8400   27.9057 C.ar    1  UNL1        0.0192
      8 C          23.8404   45.0583   28.4346 C.ar    1  UNL1        0.0015
      9 C          24.9294   45.1369   29.2831 C.ar    1  UNL1        0.0001
     10 C          25.6394   43.9958   29.6089 C.ar    1  UNL1        0.0015
     11 C          25.2627   42.7738   29.0870 C.ar    1  UNL1        0.0192
     12 C          25.6834   41.1757   26.0346 C.3     1  UNL1        0.0588
     13 C          26.4559   39.9315   25.5920 C.3     1  UNL1        0.0080
     14 C          25.3277   42.0184   24.8081 C.3     1  UNL1        0.0080
     15 S          21.4915   38.3106   27.3818 S.3     1  UNL1       -0.0654
     16 C          21.7784   37.5204   28.9893 C.3     1  UNL1        0.1337
     17 C          23.1795   37.8771   29.4900 C.3     1  UNL1        0.0221
     18 C          19.7656   38.9824   31.5776 C.ar    1  UNL1        0.1801
     19 N          20.9580   38.8392   30.9722 N.ar    1  UNL1       -0.1942
     20 C          20.7520   38.0081   29.9790 C.ar    1  UNL1        0.2464
     21 O          19.4577   37.6768   30.0118 O.2     1  UNL1       -0.3365
     22 N          18.9112   38.2448   30.9338 N.ar    1  UNL1       -0.0606
     23 C          17.9650   39.8721   33.0321 C.3     1  UNL1        0.0081
     24 C          19.4741   39.8408   32.7815 C.3     1  UNL1        0.0621
     25 C          20.1825   39.2586   34.0064 C.3     1  UNL1        0.0081
@<TRIPOS>BOND
     1    23    24    1
     2    24    25    1
     3    24    18    1
     4    18    22   ar
     5    18    19   ar
     6    19    20   ar
     7    20    21   ar
     8    20    16    1
     9    21    22   ar
    10    16    17    1
    11    16    15    1
    12    15     1    1
    13     1     5   ar
    14     1     2   ar
    15     2     3   ar
    16     3     4   ar
    17     3    12    1
    18     4     5   ar
    19     4     6    1
    20     6    11   ar
    21     6     7   ar
    22     7     8   ar
    23     8     9   ar
    24     9    10   ar
    25    10    11   ar
    26    12    13    1
    27    12    14    1
@<TRIPOS>MOLECULE
ZINC06986348
 26 28 0 0 0
SMALL
GASTEIGER

@<TRIPOS>ATOM
      1 N          24.4802   39.5779   27.2163 N.ar    1  UNL1       -0.2944
      2 C          24.4900   40.3945   28.3202 C.ar    1  UNL1        0.1462
      3 N          23.2898   40.4641   28.7993 N.ar    1  UNL1       -0.1494
      4 N          22.4547   39.6707   28.0006 N.ar    1  UNL1       -0.1776
      5 C          23.2216   39.1320   27.0297 C.ar    1  UNL1        0.1847
      6 S          22.6925   38.0813   25.7859 S.2     1  UNL1       -0.0110
      7 C          26.3282   37.9991   26.9452 C.3     1  UNL1        0.0266
      8 C          25.6398   39.2454   26.3852 C.3     1  UNL1        0.1092
      9 C          21.0161   39.4643   28.1858 C.3     1  UNL1        0.2437
     10 C          21.0883   37.1984   29.0364 C.3     1  UNL1        0.1698
     11 N          20.8063   38.6097   29.3734 N.4     1  UNL1        0.3031
     12 H          21.4431   38.9075   30.1125 H       1  UNL1        0.2096
     13 C          19.4153   38.7459   29.8543 C.3     1  UNL1        0.1352
     14 C          19.4382   39.0297   31.3342 C.ar    1  UNL1        0.0327
     15 C          20.6422   39.2457   31.9780 C.ar    1  UNL1        0.0014
     16 C          20.6627   39.5112   33.3345 C.ar    1  UNL1       -0.0001
     17 C          19.4802   39.5499   34.0492 C.ar    1  UNL1       -0.0000
     18 C          18.2765   39.3282   33.4064 C.ar    1  UNL1       -0.0001
     19 C          18.2555   39.0684   32.0489 C.ar    1  UNL1        0.0014
     20 C          25.6993   41.0995   28.8787 C.3     1  UNL1        0.0921
     21 C          25.6540   42.5558   28.4937 C.ar    1  UNL1       -0.0146
     22 C          24.9675   43.4586   29.2840 C.ar    1  UNL1       -0.0038
     23 C          24.9259   44.7945   28.9308 C.ar    1  UNL1       -0.0003
     24 C          25.5666   45.2266   27.7846 C.ar    1  UNL1       -0.0000
     25 C          26.2575   44.3246   26.9972 C.ar    1  UNL1       -0.0003
     26 C          26.2994   42.9889   27.3506 C.ar    1  UNL1       -0.0038
@<TRIPOS>UNITY_ATOM_ATTR
11 1
charge 1
@<TRIPOS>BOND
     1     7     8    1
     2     8     1    1
     3     1     5   ar
     4     1     2   ar
     5     2     3   ar
     6     2    20    1
     7     3     4   ar
     8     4     5   ar
     9     4     9    1
    10     5     6    2
    11     9    11    1
    12    10    11    1
    13    13    14    1
    14    13    11    1
    15    14    19   ar
    16    14    15   ar
    17    15    16   ar
    18    16    17   ar
    19    17    18   ar
    20    18    19   ar
    21    20    21    1
    22    21    26   ar
    23    21    22   ar
    24    22    23   ar
    25    23    24   ar
    26    24    25   ar
    27    25    26   ar
    28    11    12    1
@<TRIPOS>MOLECULE
ZINC15063596
 28 31 0 0 0
SMALL
GASTEIGER

@<TRIPOS>ATOM
      1 C          25.5393   37.2522   30.0397 C.3     1  UNL1        0.0121
      2 C          24.1783   36.7805   30.5591 C.3     1  UNL1        0.0612
      3 C          23.1955   37.9534   30.5384 C.3     1  UNL1        0.1058
      4 C          24.3514   38.9639   28.6636 C.3     1  UNL1        0.1058
      5 C          25.3689   37.8211   28.6283 C.3     1  UNL1        0.0612
      6 N          23.0573   38.4392   29.1488 N.4     1  UNL1        0.2830
      7 H          22.7723   37.6614   28.5538 H       1  UNL1        0.2072
      8 C          26.5094   36.0698   30.0006 C.3     1  UNL1        0.0051
      9 C          26.8696   35.7534   28.5476 C.3     1  UNL1        0.0264
     10 C          27.2210   31.5246   28.0567 C.ar    1  UNL1       -0.0000
     11 C          27.1707   32.3474   26.9471 C.ar    1  UNL1       -0.0003
     12 C          27.0621   33.7163   27.1060 C.ar    1  UNL1       -0.0043
     13 C          26.9939   34.2615   28.3744 C.ar    1  UNL1       -0.0222
     14 C          27.0402   33.4384   29.4840 C.ar    1  UNL1       -0.0043
     15 C          27.1537   32.0699   29.3251 C.ar    1  UNL1       -0.0003
     16 C          22.0279   39.4970   29.0842 C.3     1  UNL1        0.1944
     17 C          20.7743   38.9957   29.7539 C.ar    1  UNL1        0.2923
     18 N          20.2411   39.4579   30.8591 N.ar    1  UNL1       -0.1896
     19 C          19.1421   38.7119   31.0703 C.ar    1  UNL1        0.1850
     20 N          19.0687   37.8453   30.1050 N.ar    1  UNL1       -0.0600
     21 O          19.9970   37.9914   29.3379 O.2     1  UNL1       -0.3312
     22 C          18.1764   38.8518   32.2188 C.3     1  UNL1        0.0955
     23 C          18.8314   39.6242   33.3347 C.ar    1  UNL1       -0.0145
     24 C          19.7853   39.0161   34.1291 C.ar    1  UNL1       -0.0038
     25 C          20.3896   39.7263   35.1496 C.ar    1  UNL1       -0.0003
     26 C          20.0325   41.0412   35.3824 C.ar    1  UNL1       -0.0000
     27 C          19.0748   41.6477   34.5914 C.ar    1  UNL1       -0.0003
     28 C          18.4742   40.9391   33.5675 C.ar    1  UNL1       -0.0038
@<TRIPOS>UNITY_ATOM_ATTR
6 1
charge 1
@<TRIPOS>BOND
     1    10    15   ar
     2    10    11   ar
     3    11    12   ar
     4    12    13   ar
     5    13    14   ar
     6    13     9    1
     7    14    15   ar
     8     9     8    1
     9     8     1    1
    10     1     5    1
    11     1     2    1
    12     2     3    1
    13     3     6    1
    14     4     5    1
    15     4     6    1
    16    16    17    1
    17    16     6    1
    18    17    21   ar
    19    17    18   ar
    20    18    19   ar
    21    19    20   ar
    22    19    22    1
    23    20    21   ar
    24    22    23    1
    25    23    28   ar
    26    23    24   ar
    27    24    25   ar
    28    25    26   ar
    29    26    27   ar
    30    27    28   ar
    31     6     7    1
@<TRIPOS>MOLECULE
ZINC06126239
 26 28 0 0 0
SMALL
GASTEIGER

@<TRIPOS>ATOM
      1 C          16.7909   39.2283   31.9247 C.ar    1  UNL1        0.0958
      2 C          18.2337   39.2297   32.0762 C.ar    1  UNL1        0.0145
      3 C          18.9603   38.8210   31.0050 C.ar    1  UNL1        0.0369
      4 S          17.7171   38.4258   29.7932 S.2     1  UNL1       -0.0715
      5 C          16.2922   38.8088   30.6985 C.ar    1  UNL1        0.0870
      6 C          18.8825   39.6571   33.3386 C.ar    1  UNL1        0.0008
      7 C          19.3625   38.7044   34.2362 C.ar    1  UNL1        0.0000
      8 C          19.9706   39.1084   35.4072 C.ar    1  UNL1        0.0000
      9 C          20.0943   40.4555   35.6965 C.ar    1  UNL1        0.0000
     10 C          19.6150   41.4053   34.8123 C.ar    1  UNL1        0.0000
     11 C          19.0100   41.0134   33.6356 C.ar    1  UNL1        0.0000
     12 N          14.9692   38.7140   30.2973 N.am    1  UNL1       -0.2788
     13 C          14.5905   37.7367   29.4499 C.2     1  UNL1        0.2265
     14 O          15.4075   36.9405   29.0384 O.2     1  UNL1       -0.2748
     15 H          14.3059   39.3604   30.6312 H       1  UNL1        0.1553
     16 C          13.1517   37.6335   29.0136 C.3     1  UNL1        0.0854
     17 C          13.0882   37.5147   27.4896 C.3     1  UNL1        0.0096
     18 C          11.6401   37.6814   27.0249 C.3     1  UNL1        0.0005
     19 C          11.0723   36.3222   26.5666 C.3     1  UNL1        0.0000
     20 C          10.1760   36.6746   25.3535 C.3     1  UNL1        0.0000
     21 C          10.9819   37.7922   24.6461 C.3     1  UNL1        0.0000
     22 C          11.5825   38.6160   25.8038 C.3     1  UNL1        0.0000
     23 C          15.9049   39.6485   33.0102 C.2     1  UNL1        0.3431
     24 O          15.7442   38.9284   33.9775 O.2     1  UNL1       -0.2448
     25 C          15.5420   41.7963   33.9910 C.3     1  UNL1        0.2560
     26 O          15.2661   40.8345   32.9387 O.3     1  UNL1       -0.4413
@<TRIPOS>BOND
     1    25    26    1
     2    26    23    1
     3    23    24    2
     4    23     1    1
     5     1     5   ar
     6     1     2   ar
     7     2     3   ar
     8     2     6    1
     9     3     4   ar
    10     4     5   ar
    11     5    12    1
    12    12    13   am
    13    13    14    2
    14    13    16    1
    15    16    17    1
    16    17    18    1
    17    18    22    1
    18    18    19    1
    19    19    20    1
    20    20    21    1
    21    21    22    1
    22     6    11   ar
    23     6     7   ar
    24     7     8   ar
    25     8     9   ar
    26     9    10   ar
    27    10    11   ar
    28    12    15    1
@<TRIPOS>MOLECULE
ZINC16882287
 27 29 0 0 0
SMALL
GASTEIGER

@<TRIPOS>ATOM
      1 C          28.9134   37.1712   29.6367 C.3     1  UNL1        0.0719
      2 C          27.4361   37.4633   29.6945 C.ar    1  UNL1        0.1231
      3 N          27.0040   38.6289   29.3026 N.ar    1  UNL1       -0.2325
      4 C          25.6931   38.9377   29.3408 C.ar    1  UNL1        0.0832
      5 C          24.7812   37.9953   29.8015 C.ar    1  UNL1        0.0516
      6 C          25.2653   36.7432   30.2142 C.ar    1  UNL1        0.2594
      7 O          24.5005   35.8860   30.6261 O.2     1  UNL1       -0.2672
      8 N          26.5920   36.5061   30.1473 N.ar    1  UNL1       -0.2801
      9 C          25.2310   40.2610   28.8993 C.2     1  UNL1        0.0190
     10 C          25.8830   41.3686   29.2976 C.2     1  UNL1        0.0015
     11 C          25.4198   42.6948   28.8551 C.ar    1  UNL1        0.0000
     12 C          26.3452   43.7049   28.5759 C.ar    1  UNL1        0.0000
     13 C          25.9041   44.9427   28.1575 C.ar    1  UNL1        0.0000
     14 C          24.5488   45.1895   28.0242 C.ar    1  UNL1        0.0000
     15 C          23.6266   44.1961   28.3033 C.ar    1  UNL1        0.0000
     16 C          24.0525   42.9517   28.7176 C.ar    1  UNL1        0.0000
     17 C          27.1225   35.2083   30.5722 C.3     1  UNL1        0.1368
     18 C          27.1056   34.2527   29.4069 C.ar    1  UNL1        0.0005
     19 C          27.1620   32.8896   29.6300 C.ar    1  UNL1       -0.0024
     20 C          27.1408   32.0130   28.5614 C.ar    1  UNL1       -0.0003
     21 C          27.0686   32.4995   27.2696 C.ar    1  UNL1       -0.0000
     22 C          27.0176   33.8628   27.0463 C.ar    1  UNL1       -0.0003
     23 C          27.0388   34.7395   28.1149 C.ar    1  UNL1       -0.0024
     24 C          23.3084   38.3096   29.8571 C.3     1  UNL1        0.0327
     25 C          22.6553   37.9300   28.5267 C.3     1  UNL1        0.0046
     26 C          21.4898   36.9732   28.7855 C.3     1  UNL1        0.0003
     27 C          22.1353   39.1919   27.8355 C.3     1  UNL1        0.0003
@<TRIPOS>BOND
     1     1     2    1
     2     2     8   ar
     3     2     3   ar
     4     3     4   ar
     5     4     5   ar
     6     4     9    1
     7     5     6   ar
     8     5    24    1
     9     6     7    2
    10     6     8   ar
    11     8    17    1
    12    17    18    1
    13    18    23   ar
    14    18    19   ar
    15    19    20   ar
    16    20    21   ar
    17    21    22   ar
    18    22    23   ar
    19    24    25    1
    20    25    26    1
    21    25    27    1
    22     9    10    2
    23    10    11    1
    24    11    16   ar
    25    11    12   ar
    26    12    13   ar
    27    13    14   ar
    28    14    15   ar
    29    15    16   ar
@<TRIPOS>MOLECULE
ZINC17345630
 22 23 0 0 0
SMALL
GASTEIGER

@<TRIPOS>ATOM
      1 N          11.6359   37.5681   27.4972 N.am    1  UNL1       -0.5887
      2 C          11.0464   39.7859   24.1679 C.ar    1  UNL1        0.1094
      3 N          12.1355   39.0495   24.2660 N.ar    1  UNL1       -0.1471
      4 N          12.3755   38.3368   25.2785 N.ar    1  UNL1       -0.1661
      5 C          11.5439   38.2844   26.3099 C.ar    1  UNL1        0.0175
      6 S          10.2688   39.4023   25.7345 S.2     1  UNL1       -0.0746
      7 C          10.5871   40.6922   23.0550 C.3     1  UNL1        0.0544
      8 C          11.1976   42.0823   23.2444 C.3     1  UNL1        0.0069
      9 C          12.3468   42.2739   22.2529 C.3     1  UNL1        0.0004
     10 C          11.3370   42.8723   20.0472 C.3     1  UNL1        0.0000
     11 C          12.0138   43.4260   21.3027 C.3     1  UNL1        0.0000
     12 C          12.8279   37.0886   27.9043 C.2     1  UNL1        0.0835
     13 O          13.3022   36.1051   27.3697 O.2     1  UNL1       -0.3129
     14 C          13.5578   37.7578   28.9997 C.ar    1  UNL1        0.0284
     15 C          14.9244   38.0186   28.8751 C.ar    1  UNL1        0.0326
     16 C          15.6000   38.6488   29.9007 C.ar    1  UNL1        0.1507
     17 C          14.9261   39.0137   31.0578 C.ar    1  UNL1        0.0859
     18 C          13.5734   38.7526   31.1889 C.ar    1  UNL1        0.0251
     19 C          12.8854   38.1275   30.1677 C.ar    1  UNL1        0.0598
     20 CL         11.1884   37.8021   30.3341 Cl      1  UNL1       -0.0822
     21 CL         15.7834   39.8004   32.3460 Cl      1  UNL1       -0.0799
     22 F          16.9207   38.9062   29.7803 F       1  UNL1       -0.2033
@<TRIPOS>UNITY_ATOM_ATTR
1 1
charge -1
@<TRIPOS>BOND
     1    10    11    1
     2    11     9    1
     3     9     8    1
     4     8     7    1
     5     7     2    1
     6     2     6   ar
     7     2     3   ar
     8     3     4   ar
     9     4     5   ar
    10     5     6   ar
    11     5     1    1
    12     1    12    1
    13    12    13    2
    14    12    14    1
    15    14    19   ar
    16    14    15   ar
    17    15    16   ar
    18    16    17   ar
    19    16    22    1
    20    17    18   ar
    21    17    21    1
    22    18    19   ar
    23    19    20    1
@<TRIPOS>MOLECULE
ZINC17173693
 26 29 0 0 0
SMALL
GASTEIGER

@<TRIPOS>ATOM
      1 C          27.4413   40.1966   27.7757 C.2     1  UNL1        0.0885
      2 C          27.0304   39.0001   28.2268 C.2     1  UNL1        0.0885
      3 C          27.3703   41.3803   28.6538 C.2     1  UNL1        0.3415
      4 O          28.1837   41.5259   29.5438 O.2     1  UNL1       -0.2449
      5 O          26.4028   42.2999   28.4682 O.3     1  UNL1       -0.4492
      6 C          27.3289   45.2500   26.2336 C.3     1  UNL1        0.0036
      7 C          26.4231   44.1459   26.7828 C.3     1  UNL1        0.0371
      8 C          25.1276   44.6739   27.4150 C.3     1  UNL1        0.0068
      9 C          24.0595   43.5769   27.6345 C.3     1  UNL1        0.0002
     10 C          23.6259   43.8080   29.1033 C.3     1  UNL1        0.0001
     11 C          24.9346   44.1796   29.8301 C.3     1  UNL1        0.0036
     12 C          25.8928   44.7314   28.7596 C.3     1  UNL1        0.0403
     13 C          26.8302   43.6576   28.1813 C.3     1  UNL1        0.1688
     14 C          26.1961   43.0115   25.7817 C.3     1  UNL1        0.0036
     15 C          26.0320   38.9235   29.3107 C.2     1  UNL1        0.3415
     16 O          26.3598   38.5293   30.4116 O.2     1  UNL1       -0.2449
     17 O          24.7564   39.2908   29.0789 O.3     1  UNL1       -0.4492
     18 C          23.9406   38.3811   28.2946 C.3     1  UNL1        0.1688
     19 C          22.5516   38.1866   28.8120 C.3     1  UNL1        0.0403
     20 C          21.9737   38.3559   30.1932 C.3     1  UNL1        0.0036
     21 C          20.7904   39.3485   29.9922 C.3     1  UNL1        0.0001
     22 C          20.9342   39.8488   28.5191 C.3     1  UNL1        0.0002
     23 C          22.4226   39.6765   28.2857 C.3     1  UNL1        0.0068
     24 C          23.1445   39.0593   27.1273 C.3     1  UNL1        0.0371
     25 C          22.2992   38.0970   26.2903 C.3     1  UNL1        0.0036
     26 C          23.9601   40.0446   26.2877 C.3     1  UNL1        0.0036
@<TRIPOS>BOND
     1     6     7    1
     2     7    13    1
     3     7     8    1
     4     7    14    1
     5     8    12    1
     6     8     9    1
     7     9    10    1
     8    10    11    1
     9    11    12    1
    10    12    13    1
    11    13     5    1
    12     5     3    1
    13     3     4    2
    14     3     1    1
    15     1     2    2
    16     2    15    1
    17    15    16    2
    18    15    17    1
    19    17    18    1
    20    18    24    1
    21    18    19    1
    22    19    23    1
    23    19    20    1
    24    20    21    1
    25    21    22    1
    26    22    23    1
    27    23    24    1
    28    24    25    1
    29    24    26    1
@<TRIPOS>MOLECULE
ZINC02027652
 28 31 0 0 0
SMALL
GASTEIGER

@<TRIPOS>ATOM
      1 C          21.5074   38.7116   28.0870 C.3     1  UNL1        0.1616
      2 C          20.8939   40.1076   28.2975 C.3     1  UNL1        0.1275
      3 C          22.3315   40.5915   28.5599 C.3     1  UNL1        0.1128
      4 N          22.5621   39.2358   28.8398 N.4     1  UNL1        0.2821
      5 H          22.5843   38.9753   29.8257 H       1  UNL1        0.2075
      6 C          20.7127   37.5977   28.7183 C.2     1  UNL1        0.3678
      7 O          20.3778   36.6440   28.0562 O.2     1  UNL1       -0.2437
      8 O          20.3768   37.6649   30.0161 O.3     1  UNL1       -0.4396
      9 C          19.2116   38.4622   30.3550 C.3     1  UNL1        0.2352
     10 C          19.5531   39.8399   34.3840 C.ar    1  UNL1       -0.0000
     11 C          20.6900   39.6347   33.6250 C.ar    1  UNL1       -0.0002
     12 C          20.5794   39.1904   32.3206 C.ar    1  UNL1       -0.0007
     13 C          19.3320   38.9490   31.7761 C.ar    1  UNL1        0.0213
     14 C          18.1950   39.1537   32.5353 C.ar    1  UNL1       -0.0007
     15 C          18.3056   39.5994   33.8391 C.ar    1  UNL1       -0.0002
     16 C          23.9222   38.7619   28.3553 C.3     1  UNL1        0.1015
     17 C          24.9012   39.9004   28.2279 C.ar    1  UNL1        0.0311
     18 C          25.1364   40.4748   26.9928 C.ar    1  UNL1        0.0015
     19 C          26.0306   41.5227   26.8768 C.ar    1  UNL1       -0.0001
     20 C          26.6977   41.9888   27.9942 C.ar    1  UNL1       -0.0000
     21 C          26.4667   41.4106   29.2284 C.ar    1  UNL1       -0.0001
     22 C          25.5683   40.3666   29.3453 C.ar    1  UNL1        0.0015
     23 C          24.4895   37.7122   29.2757 C.ar    1  UNL1        0.0311
     24 C          23.9452   37.5281   30.5330 C.ar    1  UNL1        0.0015
     25 C          24.4622   36.5617   31.3752 C.ar    1  UNL1       -0.0001
     26 C          25.5305   35.7865   30.9644 C.ar    1  UNL1       -0.0000
     27 C          26.0785   35.9744   29.7093 C.ar    1  UNL1       -0.0001
     28 C          25.5578   36.9370   28.8648 C.ar    1  UNL1        0.0015
@<TRIPOS>UNITY_ATOM_ATTR
4 1
charge 1
@<TRIPOS>BOND
     1    10    15   ar
     2    10    11   ar
     3    11    12   ar
     4    12    13   ar
     5    13    14   ar
     6    13     9    1
     7    14    15   ar
     8     9     8    1
     9     8     6    1
    10     6     7    2
    11     6     1    1
    12     1     2    1
    13     1     4    1
    14     2     3    1
    15     3     4    1
    16    16    17    1
    17    16    23    1
    18    16     4    1
    19    17    22   ar
    20    17    18   ar
    21    18    19   ar
    22    19    20   ar
    23    20    21   ar
    24    21    22   ar
    25    23    28   ar
    26    23    24   ar
    27    24    25   ar
    28    25    26   ar
    29    26    27   ar
    30    27    28   ar
    31     4     5    1
@<TRIPOS>MOLECULE
ZINC22352410
 26 28 0 0 0
SMALL
GASTEIGER

@<TRIPOS>ATOM
      1 C          20.8571   50.7739   22.3360 C.ar    1  UNL1        0.0578
      2 C          21.2146   50.4263   23.6301 C.ar    1  UNL1        0.0388
      3 C          21.2637   51.4167   24.6209 C.ar    1  UNL1        0.1318
      4 N          20.9764   52.6747   24.3720 N.ar    1  UNL1       -0.2307
      5 C          20.6279   53.1003   23.1545 C.ar    1  UNL1        0.0828
      6 C          20.5471   52.1808   22.0799 C.ar    1  UNL1        0.0222
      7 C          20.1760   52.6281   20.8071 C.ar    1  UNL1        0.0016
      8 C          19.8951   53.9480   20.6126 C.ar    1  UNL1        0.0001
      9 C          19.9727   54.8564   21.6658 C.ar    1  UNL1        0.0015
     10 C          20.3301   54.4538   22.9160 C.ar    1  UNL1        0.0191
     11 N          21.9009   49.4485   20.5605 N.am    1  UNL1       -0.2743
     12 C          23.1468   50.1822   20.7962 C.3     1  UNL1        0.1152
     13 C          20.7913   49.7630   21.2579 C.2     1  UNL1        0.2492
     14 O          19.7367   49.2161   21.0012 O.2     1  UNL1       -0.2699
     15 C          21.8610   48.3729   19.5666 C.3     1  UNL1        0.0938
     16 C          22.1865   48.9432   18.1847 C.3     1  UNL1        0.0215
     17 C          21.4459   51.2224   17.4783 C.3     1  UNL1        0.0001
     18 C          21.0025   49.7724   17.6833 C.3     1  UNL1        0.0018
     19 N          21.6228   51.0551   25.9112 N.pl3   1  UNL1       -0.2931
     20 C          22.9370   51.4306   26.4382 C.3     1  UNL1        0.1135
     21 C          20.6876   50.2977   26.7467 C.3     1  UNL1        0.0742
     22 C          21.2942   50.0956   28.1367 C.3     1  UNL1        0.0198
     23 C          20.3176   49.3047   29.0092 C.3     1  UNL1        0.0017
     24 C          19.0035   50.0783   29.1339 C.3     1  UNL1        0.0001
     25 C          18.3968   50.2804   27.7439 C.3     1  UNL1        0.0017
     26 C          19.3735   51.0713   26.8713 C.3     1  UNL1        0.0198
@<TRIPOS>BOND
     1    17    18    1
     2    18    16    1
     3    16    15    1
     4    15    11    1
     5    11    12    1
     6    11    13   am
     7    13    14    2
     8    13     1    1
     9     1     6   ar
    10     1     2   ar
    11     2     3   ar
    12     3     4   ar
    13     3    19    1
    14     4     5   ar
    15     5    10   ar
    16     5     6   ar
    17     6     7   ar
    18     7     8   ar
    19     8     9   ar
    20     9    10   ar
    21    19    20    1
    22    19    21    1
    23    21    26    1
    24    21    22    1
    25    22    23    1
    26    23    24    1
    27    24    25    1
    28    25    26    1
@<TRIPOS>MOLECULE
ZINC07468977
 25 27 0 0 0
SMALL
GASTEIGER

@<TRIPOS>ATOM
      1 C          22.2444   39.0941   28.2120 C.3     1  UNL1        0.2521
      2 C          23.5646   43.1552   28.1065 C.ar    1  UNL1       -0.0000
      3 C          22.3185   42.8467   28.6192 C.ar    1  UNL1       -0.0002
      4 C          21.8913   41.5325   28.6535 C.ar    1  UNL1       -0.0004
      5 C          22.7101   40.5269   28.1746 C.ar    1  UNL1        0.0249
      6 C          23.9583   40.8349   27.6668 C.ar    1  UNL1       -0.0004
      7 C          24.3838   42.1496   27.6285 C.ar    1  UNL1       -0.0002
      8 C          23.4104   38.1797   27.9373 C.2     1  UNL1        0.2172
      9 O          23.6547   37.8335   26.8012 O.2     1  UNL1       -0.2872
     10 C          24.2526   37.7072   29.0477 C.ar    1  UNL1        0.0387
     11 C          25.5949   38.0923   29.1251 C.ar    1  UNL1        0.0030
     12 C          26.3764   37.6486   30.1708 C.ar    1  UNL1        0.0001
     13 C          25.8383   36.8169   31.1373 C.ar    1  UNL1        0.0000
     14 C          24.5121   36.4275   31.0652 C.ar    1  UNL1        0.0001
     15 C          23.7164   36.8663   30.0281 C.ar    1  UNL1        0.0030
     16 O          21.7039   38.8024   29.5023 O.3     1  UNL1       -0.4365
     17 C          20.4403   38.3301   29.5448 C.2     1  UNL1        0.3420
     18 O          20.1499   37.3138   28.9418 O.2     1  UNL1       -0.2449
     19 C          19.4537   39.0163   30.2900 C.2     1  UNL1        0.0819
     20 C          19.1603   38.6203   31.5507 C.2     1  UNL1        0.0072
     21 C          18.1372   39.3318   32.3234 C.ar    1  UNL1        0.0072
     22 C          18.4894   40.2140   33.4090 C.ar    1  UNL1        0.0075
     23 C          17.4774   40.8182   34.0612 C.ar    1  UNL1        0.0355
     24 S          16.0315   40.2159   33.2135 S.2     1  UNL1       -0.0859
     25 C          16.7907   39.1918   32.0417 C.ar    1  UNL1        0.0354
@<TRIPOS>BOND
     1     2     7   ar
     2     2     3   ar
     3     3     4   ar
     4     4     5   ar
     5     5     6   ar
     6     5     1    1
     7     6     7   ar
     8     1     8    1
     9     1    16    1
    10     8     9    2
    11     8    10    1
    12    10    15   ar
    13    10    11   ar
    14    11    12   ar
    15    12    13   ar
    16    13    14   ar
    17    14    15   ar
    18    16    17    1
    19    17    18    2
    20    17    19    1
    21    19    20    2
    22    20    21    1
    23    21    25   ar
    24    21    22   ar
    25    22    23   ar
    26    23    24   ar
    27    24    25   ar
@<TRIPOS>MOLECULE
ZINC03180688
 23 24 0 0 0
SMALL
GASTEIGER

@<TRIPOS>ATOM
      1 C          25.7661   36.5876   29.9300 C.ar    1  UNL1        0.1162
      2 C          24.7772   36.6302   30.9370 C.ar    1  UNL1        0.0920
      3 C          23.5810   37.3021   30.6891 C.ar    1  UNL1        0.0170
      4 C          23.4079   37.9127   29.4403 C.ar    1  UNL1        0.0620
      5 C          24.4451   37.8208   28.4808 C.ar    1  UNL1        0.0908
      6 N          25.5713   37.1753   28.7609 N.ar    1  UNL1       -0.2379
      7 C          24.2761   38.4515   27.1638 C.ar    1  UNL1        0.0472
      8 C          23.6296   37.9655   26.0400 C.ar    1  UNL1        0.0085
      9 C          23.6163   38.7730   24.9274 C.ar    1  UNL1        0.0075
     10 C          24.2350   39.9801   24.9776 C.ar    1  UNL1        0.0355
     11 S          24.8571   40.0393   26.5946 S.2     1  UNL1       -0.0849
     12 C          22.1708   38.6300   29.1296 C.2     1  UNL1        0.2681
     13 O          22.1155   39.8341   29.2716 O.2     1  UNL1       -0.2824
     14 C          20.9655   37.8737   28.6333 C.3     1  UNL1        0.4555
     15 F          21.3079   36.5326   28.4298 F       1  UNL1       -0.1631
     16 F          20.5291   38.4318   27.4269 F       1  UNL1       -0.1631
     17 F          19.9409   37.9545   29.5823 F       1  UNL1       -0.1631
     18 C          25.0001   35.9900   32.1985 C.1     1  UNL1        0.1025
     19 N          25.1771   35.4821   33.1991 N.1     1  UNL1       -0.1908
     20 S          27.2807   35.7406   30.2349 S.3     1  UNL1       -0.0943
     21 C          26.8319   34.0807   29.6696 C.3     1  UNL1        0.0637
     22 C          27.1251   32.4684   27.7837 C.3     1  UNL1        0.0009
     23 C          27.1499   33.9463   28.1791 C.3     1  UNL1        0.0120
@<TRIPOS>BOND
     1    22    23    1
     2    23    21    1
     3    21    20    1
     4    20     1    1
     5     1     6   ar
     6     1     2   ar
     7     2     3   ar
     8     2    18    1
     9     3     4   ar
    10     4     5   ar
    11     4    12    1
    12     5     6   ar
    13     5     7    1
    14     7    11   ar
    15     7     8   ar
    16     8     9   ar
    17     9    10   ar
    18    10    11   ar
    19    12    13    2
    20    12    14    1
    21    14    15    1
    22    14    16    1
    23    14    17    1
    24    18    19    3
@<TRIPOS>MOLECULE
ZINC07345195
 25 27 0 0 0
SMALL
GASTEIGER

@<TRIPOS>ATOM
      1 C          13.6931   37.0197   28.0114 C.3     1  UNL1        0.1112
      2 C          12.4761   37.1825   27.1379 C.ar    1  UNL1        0.0774
      3 C          11.5183   36.2176   27.1176 C.ar    1  UNL1        0.0524
      4 S          10.3623   36.9248   25.9505 S.2     1  UNL1       -0.0663
      5 C          11.2781   38.4240   25.6182 C.ar    1  UNL1        0.1104
      6 N          12.3360   38.2583   26.3996 N.ar    1  UNL1       -0.2418
      7 C          10.9429   39.5487   24.7185 C.ar    1  UNL1        0.0238
      8 C          10.3193   40.6896   25.2254 C.ar    1  UNL1        0.0017
      9 C          10.0131   41.7372   24.3814 C.ar    1  UNL1       -0.0042
     10 C          10.3142   41.6543   23.0337 C.ar    1  UNL1       -0.0218
     11 C          10.9278   40.5239   22.5239 C.ar    1  UNL1       -0.0042
     12 C          11.2436   39.4713   23.3580 C.ar    1  UNL1        0.0017
     13 C           9.9722   42.8003   22.1167 C.3     1  UNL1        0.0310
     14 S          13.5098   38.0371   29.4972 S.3     1  UNL1       -0.0692
     15 N          15.6888   38.7926   31.0815 N.ar    1  UNL1       -0.2591
     16 C          17.0297   38.8935   30.9885 C.ar    1  UNL1        0.3454
     17 O          17.7852   39.2753   31.8647 O.2     1  UNL1       -0.2450
     18 N          17.3835   38.4919   29.7502 N.ar    1  UNL1       -0.2257
     19 N          16.2082   38.1445   29.0702 N.ar    1  UNL1       -0.1445
     20 C          15.2049   38.3296   29.8789 C.ar    1  UNL1        0.1937
     21 H          18.2990   38.4506   29.3902 H       1  UNL1        0.1937
     22 C          14.8834   39.1249   32.2592 C.3     1  UNL1        0.1125
     23 C          14.5223   40.6113   32.2274 C.3     1  UNL1        0.0247
     24 C          15.8889   40.7464   34.3146 C.3     1  UNL1        0.0001
     25 C          15.5942   41.4125   32.9691 C.3     1  UNL1        0.0020
@<TRIPOS>BOND
     1    24    25    1
     2    25    23    1
     3    23    22    1
     4    22    15    1
     5    15    20   ar
     6    15    16   ar
     7    16    17    2
     8    16    18   ar
     9    18    19   ar
    10    19    20   ar
    11    20    14    1
    12    14     1    1
    13     1     2    1
    14     2     6   ar
    15     2     3   ar
    16     3     4   ar
    17     4     5   ar
    18     5     6   ar
    19     5     7    1
    20     7    12   ar
    21     7     8   ar
    22     8     9   ar
    23     9    10   ar
    24    10    11   ar
    25    10    13    1
    26    11    12   ar
    27    18    21    1
@<TRIPOS>MOLECULE
ZINC06279689
 27 29 0 0 0
SMALL
GASTEIGER

@<TRIPOS>ATOM
      1 C          21.5409   38.2048   29.9979 C.ar    1  UNL1        0.0394
      2 C          20.4993   38.7940   30.6985 C.ar    1  UNL1        0.1019
      3 N          20.9454   39.0781   31.9335 N.ar    1  UNL1       -0.2282
      4 N          22.2776   38.6753   32.0591 N.ar    1  UNL1       -0.1651
      5 C          22.6780   38.1435   30.9270 C.ar    1  UNL1        0.1027
      6 C          24.0232   37.5920   30.6391 C.ar    1  UNL1        0.0194
      7 C          24.3679   36.3177   31.0883 C.ar    1  UNL1        0.0016
      8 C          25.6200   35.8073   30.8122 C.ar    1  UNL1        0.0000
      9 C          26.5361   36.5616   30.1014 C.ar    1  UNL1        0.0000
     10 C          26.2017   37.8287   29.6581 C.ar    1  UNL1        0.0000
     11 C          24.9508   38.3475   29.9232 C.ar    1  UNL1        0.0016
     12 C          20.1892   39.6868   32.9431 C.ar    1  UNL1        0.0828
     13 C          20.7957   40.0685   34.1326 C.ar    1  UNL1        0.0191
     14 C          20.0484   40.6742   35.1237 C.ar    1  UNL1        0.0015
     15 C          18.6952   40.8896   34.9374 C.ar    1  UNL1        0.0001
     16 C          18.0871   40.5055   33.7563 C.ar    1  UNL1        0.0015
     17 C          18.8301   39.9049   32.7589 C.ar    1  UNL1        0.0191
     18 C          21.9807   38.5623   27.6407 C.2     1  UNL1        0.1439
     19 C          21.5135   37.7495   28.6550 C.2     1  UNL1        0.0199
     20 C          22.0961   38.0379   26.2742 C.2     1  UNL1        0.3509
     21 O          21.2631   37.2611   25.8487 O.2     1  UNL1       -0.2441
     22 O          23.1261   38.4177   25.4911 O.3     1  UNL1       -0.4487
     23 C          25.0672   37.0049   25.8993 C.3     1  UNL1        0.0473
     24 C          24.4504   38.3927   26.0860 C.3     1  UNL1        0.1694
     25 C          25.3349   39.4395   25.4057 C.3     1  UNL1        0.0473
     26 C          22.3524   39.9163   27.9218 C.1     1  UNL1        0.1070
     27 N          22.6473   40.9904   28.1448 N.1     1  UNL1       -0.1906
@<TRIPOS>BOND
     1    23    24    1
     2    24    25    1
     3    24    22    1
     4    22    20    1
     5    20    21    2
     6    20    18    1
     7    18    19    2
     8    18    26    1
     9    19     1    1
    10     1     5   ar
    11     1     2   ar
    12     2     3   ar
    13     3     4   ar
    14     3    12    1
    15     4     5   ar
    16     5     6    1
    17     6    11   ar
    18     6     7   ar
    19     7     8   ar
    20     8     9   ar
    21     9    10   ar
    22    10    11   ar
    23    12    17   ar
    24    12    13   ar
    25    13    14   ar
    26    14    15   ar
    27    15    16   ar
    28    16    17   ar
    29    26    27    3
@<TRIPOS>MOLECULE
ZINC24225896
 24 26 0 0 0
SMALL
GASTEIGER

@<TRIPOS>ATOM
      1 C          12.6391   37.5005   28.8936 C.3     1  UNL1        0.2929
      2 C          13.9199   38.0513   29.4655 C.ar    1  UNL1        0.2507
      3 N          15.0876   38.0063   28.8877 N.ar    1  UNL1       -0.2073
      4 C          15.9907   38.5942   29.6864 C.ar    1  UNL1        0.1392
      5 C          15.3400   39.0077   30.8040 C.ar    1  UNL1        0.1661
      6 O          14.0429   38.6611   30.6523 O.2     1  UNL1       -0.4348
      7 C          15.9361   39.7035   31.9641 C.ar    1  UNL1        0.0370
      8 C          15.2333   40.7249   32.6056 C.ar    1  UNL1        0.0031
      9 C          15.7922   41.3668   33.6912 C.ar    1  UNL1        0.0010
     10 C          17.0516   41.0083   34.1380 C.ar    1  UNL1        0.0114
     11 C          17.7568   40.0001   33.5031 C.ar    1  UNL1        0.0578
     12 C          17.2058   39.3460   32.4189 C.ar    1  UNL1        0.0145
     13 CL         19.3367   39.5579   34.0708 Cl      1  UNL1       -0.0822
     14 O          12.7585   37.3940   27.4735 O.3     1  UNL1       -0.4351
     15 C          11.6110   37.3513   26.7635 C.2     1  UNL1        0.3419
     16 O          10.9923   36.3074   26.6691 O.2     1  UNL1       -0.2449
     17 C          11.5320   38.8219   24.8697 C.2     1  UNL1        0.0131
     18 C          11.1289   38.5177   26.1302 C.2     1  UNL1        0.0824
     19 C          10.2872   43.1161   21.5980 C.3     1  UNL1        0.0382
     20 C          10.4497   42.0586   22.6593 C.ar    1  UNL1        0.0076
     21 C           9.8301   41.9719   23.8662 C.ar    1  UNL1        0.0027
     22 C          10.1163   40.9148   24.6925 C.ar    1  UNL1        0.0067
     23 C          11.0489   39.9906   24.2350 C.ar    1  UNL1        0.0294
     24 S          11.4717   40.6584   22.6356 S.2     1  UNL1       -0.0913
@<TRIPOS>BOND
     1    19    20    1
     2    20    24   ar
     3    20    21   ar
     4    21    22   ar
     5    22    23   ar
     6    23    24   ar
     7    23    17    1
     8    17    18    2
     9    18    15    1
    10    15    16    2
    11    15    14    1
    12    14     1    1
    13     1     2    1
    14     2     6   ar
    15     2     3   ar
    16     3     4   ar
    17     4     5   ar
    18     5     6   ar
    19     5     7    1
    20     7    12   ar
    21     7     8   ar
    22     8     9   ar
    23     9    10   ar
    24    10    11   ar
    25    11    12   ar
    26    11    13    1
@<TRIPOS>MOLECULE
ZINC01024042
 22 23 0 0 0
SMALL
GASTEIGER

@<TRIPOS>ATOM
      1 C          22.4448   38.5322   29.2016 C.ar    1  UNL1        0.0683
      2 C          21.3348   39.2332   29.6326 C.ar    1  UNL1        0.1100
      3 C          21.2788   40.4287   28.8801 C.ar    1  UNL1        0.1281
      4 N          22.2933   40.4381   28.0597 N.ar    1  UNL1       -0.1635
      5 N          23.0321   39.2633   28.2378 N.ar    1  UNL1       -0.2318
      6 C          24.1928   38.9106   27.5342 C.ar    1  UNL1        0.1035
      7 C          25.4343   39.3536   27.9730 C.ar    1  UNL1        0.0770
      8 C          26.5765   39.0048   27.2772 C.ar    1  UNL1        0.0244
      9 C          26.4844   38.2150   26.1447 C.ar    1  UNL1        0.0595
     10 C          25.2486   37.7770   25.7020 C.ar    1  UNL1        0.0244
     11 C          24.1034   38.1179   26.3969 C.ar    1  UNL1        0.0770
     12 CL         22.5542   37.5619   25.8449 Cl      1  UNL1       -0.0806
     13 CL         27.9212   37.7789   25.2733 Cl      1  UNL1       -0.0822
     14 CL         25.5509   40.3449   29.3934 Cl      1  UNL1       -0.0806
     15 C          20.3883   38.8139   30.6799 C.2     1  UNL1        0.3440
     16 O          19.5482   37.9699   30.4372 O.2     1  UNL1       -0.2448
     17 O          20.4534   39.3664   31.9073 O.3     1  UNL1       -0.4454
     18 C          19.3289   39.1331   32.7957 C.3     1  UNL1        0.2089
     19 C          19.8289   39.0446   34.2390 C.3     1  UNL1        0.0513
     20 C          22.9113   37.1951   29.7169 C.3     1  UNL1        0.0461
     21 C          25.2169   36.6539   30.5130 C.3     1  UNL1        0.0004
     22 C          23.9268   37.4080   30.8414 C.3     1  UNL1        0.0063
@<TRIPOS>BOND
     1    21    22    1
     2    22    20    1
     3    20     1    1
     4     1     5   ar
     5     1     2   ar
     6     2     3   ar
     7     2    15    1
     8     3     4   ar
     9     4     5   ar
    10     5     6    1
    11     6    11   ar
    12     6     7   ar
    13     7     8   ar
    14     7    14    1
    15     8     9   ar
    16     9    10   ar
    17     9    13    1
    18    10    11   ar
    19    11    12    1
    20    15    16    2
    21    15    17    1
    22    17    18    1
    23    18    19    1
@<TRIPOS>MOLECULE
ZINC06863452
 25 27 0 0 0
SMALL
GASTEIGER

@<TRIPOS>ATOM
      1 N          23.1067   38.2684   28.7046 N.am    1  UNL1       -0.2842
      2 C          23.0145   39.1122   27.6578 C.2     1  UNL1        0.1387
      3 S          23.7829   38.7267   26.1774 S.2     1  UNL1       -0.0183
      4 N          22.3174   40.2596   27.7765 N.am    1  UNL1       -0.2957
      5 H          21.3543   40.2738   27.5729 H       1  UNL1        0.1539
      6 C          22.9627   41.4308   28.1893 C.ar    1  UNL1        0.0496
      7 C          24.3483   41.5130   28.1483 C.ar    1  UNL1        0.0155
      8 C          24.9822   42.6724   28.5500 C.ar    1  UNL1        0.0127
      9 C          24.2385   43.7470   29.0051 C.ar    1  UNL1        0.0578
     10 C          22.8579   43.6655   29.0527 C.ar    1  UNL1        0.0127
     11 C          22.2187   42.5109   28.6460 C.ar    1  UNL1        0.0155
     12 CL         25.0390   45.2001   29.5166 Cl      1  UNL1       -0.0822
     13 C          22.0252   37.3183   28.9771 C.3     1  UNL1        0.1574
     14 C          19.8149   39.1942   31.2527 C.ar    1  UNL1        0.0435
     15 C          21.0947   38.7276   30.8743 C.ar    1  UNL1        0.0379
     16 C          20.9309   38.0104   29.7482 C.ar    1  UNL1        0.1430
     17 O          19.6259   38.0108   29.4309 O.2     1  UNL1       -0.4530
     18 C          18.9443   38.7271   30.3397 C.ar    1  UNL1        0.1792
     19 C          24.2882   38.3009   29.5700 C.3     1  UNL1        0.0931
     20 C          24.6784   36.8722   29.9544 C.3     1  UNL1        0.0245
     21 C          24.8189   36.7685   31.4784 C.3     1  UNL1        0.0067
     22 C          25.0325   35.2986   31.8460 C.3     1  UNL1        0.0258
     23 C          26.1166   34.7050   30.9950 C.2     1  UNL1       -0.0307
     24 C          26.5452   35.2332   29.8937 C.2     1  UNL1       -0.0306
     25 C          26.0245   36.5179   29.3189 C.3     1  UNL1        0.0274
@<TRIPOS>BOND
     1    14    18   ar
     2    14    15   ar
     3    15    16   ar
     4    16    17   ar
     5    16    13    1
     6    17    18   ar
     7    13     1    1
     8     1    19    1
     9     1     2    1
    10    19    20    1
    11    20    25    1
    12    20    21    1
    13    21    22    1
    14    22    23    1
    15    23    24    2
    16    24    25    1
    17     2     3    2
    18     2     4    1
    19     4     6    1
    20     6    11   ar
    21     6     7   ar
    22     7     8   ar
    23     8     9   ar
    24     9    10   ar
    25     9    12    1
    26    10    11   ar
    27     4     5    1
@<TRIPOS>MOLECULE
ZINC03266107
 25 27 0 0 0
SMALL
GASTEIGER

@<TRIPOS>ATOM
      1 C          11.7713   38.6974   25.2769 C.2     1  UNL1        0.3202
      2 O          12.8727   38.6341   24.7841 O.2     1  UNL1       -0.2498
      3 C          10.5667   38.9314   24.4019 C.3     1  UNL1        0.1083
      4 C           9.3450   39.2814   25.2696 C.3     1  UNL1        0.0147
      5 C           8.2879   38.1900   25.0029 C.3     1  UNL1        0.0009
      6 C           9.1121   36.9760   24.5070 C.3     1  UNL1        0.0009
      7 C          10.2093   37.6396   23.6383 C.3     1  UNL1        0.0147
      8 C          10.8458   40.0467   23.4276 C.ar    1  UNL1       -0.0126
      9 C          11.0434   41.3344   23.8900 C.ar    1  UNL1       -0.0015
     10 C          11.3042   42.3571   22.9977 C.ar    1  UNL1        0.0293
     11 C          11.3570   42.0935   21.6395 C.ar    1  UNL1        0.1401
     12 C          11.1537   40.8043   21.1772 C.ar    1  UNL1        0.0293
     13 C          10.8984   39.7822   22.0716 C.ar    1  UNL1       -0.0015
     14 F          11.6072   43.0933   20.7661 F       1  UNL1       -0.2042
     15 O          11.6211   38.5649   26.6041 O.3     1  UNL1       -0.4397
     16 C          11.6230   37.2138   27.1359 C.3     1  UNL1        0.2766
     17 C          12.9865   36.8952   27.6933 C.2     1  UNL1        0.2170
     18 O          13.6727   36.0445   27.1679 O.2     1  UNL1       -0.2874
     19 C          12.6386   37.8517   29.9631 C.ar    1  UNL1        0.0038
     20 C          13.1143   38.5230   31.0688 C.ar    1  UNL1        0.0115
     21 C          14.4239   38.9748   31.0989 C.ar    1  UNL1        0.0577
     22 C          15.2663   38.7502   30.0218 C.ar    1  UNL1        0.0115
     23 C          14.8062   38.0749   28.9120 C.ar    1  UNL1        0.0038
     24 C          13.4850   37.6163   28.8744 C.ar    1  UNL1        0.0385
     25 CL         15.0123   39.8257   32.4929 Cl      1  UNL1       -0.0822
@<TRIPOS>BOND
     1    19    24   ar
     2    19    20   ar
     3    20    21   ar
     4    21    22   ar
     5    21    25    1
     6    22    23   ar
     7    23    24   ar
     8    24    17    1
     9    17    18    2
    10    17    16    1
    11    16    15    1
    12    15     1    1
    13     1     2    2
    14     1     3    1
    15     3     7    1
    16     3     4    1
    17     3     8    1
    18     4     5    1
    19     5     6    1
    20     6     7    1
    21     8    13   ar
    22     8     9   ar
    23     9    10   ar
    24    10    11   ar
    25    11    12   ar
    26    11    14    1
    27    12    13   ar
@<TRIPOS>MOLECULE
ZINC16874528
 26 29 0 0 0
SMALL
GASTEIGER

@<TRIPOS>ATOM
      1 C          23.6399   37.7047   28.7121 C.3     1  UNL1        0.2623
      2 N          22.2281   37.7643   29.0991 N.ar    1  UNL1       -0.0967
      3 N          21.7594   38.4083   30.1122 N.ar    1  UNL1       -0.1247
      4 C          20.4535   38.2306   30.1340 C.ar    1  UNL1        0.2060
      5 N          20.1557   37.4416   29.0921 N.ar    1  UNL1       -0.1076
      6 N          21.2618   37.1771   28.4837 N.ar    1  UNL1       -0.0400
      7 C          19.4990   38.7904   31.1237 C.ar    1  UNL1        0.0394
      8 C          19.9720   39.4738   32.2416 C.ar    1  UNL1        0.0040
      9 C          19.0806   39.9974   33.1558 C.ar    1  UNL1        0.0115
     10 C          17.7186   39.8340   32.9696 C.ar    1  UNL1        0.0577
     11 C          17.2439   39.1510   31.8629 C.ar    1  UNL1        0.0115
     12 C          18.1274   38.6288   30.9403 C.ar    1  UNL1        0.0040
     13 CL         16.6024   40.4880   34.1272 Cl      1  UNL1       -0.0822
     14 N          23.9359   38.8482   27.8236 N.4     1  UNL1        0.2956
     15 H          23.0921   39.4108   27.7154 H       1  UNL1        0.2091
     16 C          24.3604   38.3590   26.4951 C.3     1  UNL1        0.0582
     17 C          23.8539   39.1450   25.2841 C.3     1  UNL1        0.0609
     18 C          23.2716   37.7657   25.5987 C.3     1  UNL1        0.0609
     19 C          24.9990   39.6865   28.4165 C.3     1  UNL1        0.1348
     20 C          25.3731   42.1248   28.8395 C.ar    1  UNL1        0.0037
     21 C          24.9137   43.4245   28.9372 C.ar    1  UNL1        0.0295
     22 C          23.5725   43.7013   28.7335 C.ar    1  UNL1        0.1401
     23 C          22.6939   42.6760   28.4268 C.ar    1  UNL1        0.0295
     24 C          23.1565   41.3779   28.3245 C.ar    1  UNL1        0.0037
     25 C          24.4959   41.1027   28.5281 C.ar    1  UNL1        0.0329
     26 F          23.1215   44.9709   28.8334 F       1  UNL1       -0.2042
@<TRIPOS>UNITY_ATOM_ATTR
14 1
charge 1
@<TRIPOS>BOND
     1    20    25   ar
     2    20    21   ar
     3    21    22   ar
     4    22    23   ar
     5    22    26    1
     6    23    24   ar
     7    24    25   ar
     8    25    19    1
     9    19    14    1
    10     1     2    1
    11     1    14    1
    12     2     6   ar
    13     2     3   ar
    14     3     4   ar
    15     4     5   ar
    16     4     7    1
    17     5     6   ar
    18     7    12   ar
    19     7     8   ar
    20     8     9   ar
    21     9    10   ar
    22    10    11   ar
    23    10    13    1
    24    11    12   ar
    25    16    18    1
    26    16    17    1
    27    16    14    1
    28    17    18    1
    29    14    15    1
@<TRIPOS>MOLECULE
ZINC12411474
 27 31 0 0 0
SMALL
GASTEIGER

@<TRIPOS>ATOM
      1 C          22.2878   39.0547   27.9941 C.ar    1  UNL1        0.0486
      2 C          22.6498   40.3117   28.6654 C.ar    1  UNL1        0.0369
      3 C          23.5424   40.9136   27.8645 C.ar    1  UNL1        0.1216
      4 O          23.7472   40.1487   26.7808 O.2     1  UNL1       -0.4620
      5 C          23.0141   39.0326   26.8394 C.ar    1  UNL1        0.1239
      6 C          22.9897   37.9385   25.8034 C.3     1  UNL1        0.0725
      7 C          24.2046   42.2399   28.1356 C.3     1  UNL1        0.0512
      8 C          25.3349   42.0480   29.1488 C.3     1  UNL1        0.0071
      9 C          26.0072   43.3946   29.4239 C.3     1  UNL1        0.0004
     10 C          26.5803   43.9543   28.1203 C.3     1  UNL1        0.0000
     11 C          25.4500   44.1462   27.1072 C.3     1  UNL1        0.0004
     12 C          24.7777   42.7996   26.8321 C.3     1  UNL1        0.0071
     13 C          24.4189   45.1249   27.6729 C.3     1  UNL1        0.0000
     14 C          23.8458   44.5651   28.9764 C.3     1  UNL1        0.0004
     15 C          24.9761   44.3733   29.9895 C.3     1  UNL1        0.0000
     16 C          23.1735   43.2186   28.7012 C.3     1  UNL1        0.0071
     17 C          21.3387   38.0326   28.4691 C.2     1  UNL1        0.0853
     18 O          21.7370   36.9207   28.7587 O.2     1  UNL1       -0.3128
     19 N          20.0290   38.3301   28.5825 N.am    1  UNL1       -0.5887
     20 C          18.7717   39.1365   32.3402 C.ar    1  UNL1        0.1094
     21 N          17.8898   38.7706   31.4314 N.ar    1  UNL1       -0.1471
     22 N          18.2200   38.5061   30.2432 N.ar    1  UNL1       -0.1661
     23 C          19.4790   38.5803   29.8343 C.ar    1  UNL1        0.0175
     24 S          20.2687   39.0875   31.3591 S.2     1  UNL1       -0.0746
     25 C          18.5764   39.4897   33.7921 C.3     1  UNL1        0.0544
     26 C          20.3696   40.4525   35.2413 C.3     1  UNL1        0.0004
     27 C          19.8565   39.1771   34.5696 C.3     1  UNL1        0.0069
@<TRIPOS>UNITY_ATOM_ATTR
19 1
charge -1
@<TRIPOS>BOND
     1    26    27    1
     2    27    25    1
     3    25    20    1
     4    20    24   ar
     5    20    21   ar
     6    21    22   ar
     7    22    23   ar
     8    23    24   ar
     9    23    19    1
    10    19    17    1
    11    17    18    2
    12    17     1    1
    13     1     5   ar
    14     1     2   ar
    15     2     3   ar
    16     3     4   ar
    17     3     7    1
    18     4     5   ar
    19     5     6    1
    20     7    12    1
    21     7    16    1
    22     7     8    1
    23     8     9    1
    24     9    15    1
    25     9    10    1
    26    10    11    1
    27    11    12    1
    28    11    13    1
    29    13    14    1
    30    14    15    1
    31    14    16    1
@<TRIPOS>MOLECULE
ZINC03476937
 27 30 0 0 0
SMALL
GASTEIGER

@<TRIPOS>ATOM
      1 C          20.1439   38.6206   30.4197 C.ar    1  UNL1        0.1935
      2 N          19.1572   38.1306   29.7055 N.ar    1  UNL1       -0.1224
      3 N          18.0431   38.3068   30.3215 N.ar    1  UNL1       -0.1328
      4 C          18.2501   38.9145   31.4554 C.ar    1  UNL1        0.1434
      5 N          19.5956   39.1363   31.5588 N.ar    1  UNL1       -0.2896
      6 C          17.2010   39.3009   32.4660 C.3     1  UNL1        0.0588
      7 C          15.8168   39.2255   31.8184 C.3     1  UNL1        0.0075
      8 C          14.7518   39.6177   32.8444 C.3     1  UNL1        0.0004
      9 C          15.0114   41.0457   33.3286 C.3     1  UNL1        0.0000
     10 C          16.3955   41.1210   33.9761 C.3     1  UNL1        0.0004
     11 C          17.4606   40.7288   32.9500 C.3     1  UNL1        0.0075
     12 S          21.8527   38.6137   29.9895 S.3     1  UNL1       -0.0691
     13 C          21.7421   39.1159   28.2541 C.3     1  UNL1        0.1119
     14 C          24.0880   38.7664   26.6072 C.3     1  UNL1        0.0534
     15 C          23.7968   40.1151   27.2130 C.ar    1  UNL1        0.0737
     16 C          22.6620   40.2842   28.0097 C.ar    1  UNL1        0.0838
     17 N          22.3909   41.4491   28.5524 N.ar    1  UNL1       -0.2461
     18 C          23.2067   42.4867   28.3366 C.ar    1  UNL1        0.0985
     19 C          22.9452   43.7464   28.9034 C.ar    1  UNL1        0.0206
     20 C          23.7944   44.7825   28.6655 C.ar    1  UNL1        0.0016
     21 C          24.9244   44.6151   27.8664 C.ar    1  UNL1        0.0016
     22 C          25.2097   43.4108   27.3012 C.ar    1  UNL1        0.0206
     23 C          24.3556   42.3166   27.5237 C.ar    1  UNL1        0.0985
     24 N          24.6099   41.1203   26.9821 N.ar    1  UNL1       -0.2469
     25 C          20.3019   39.7915   32.6625 C.3     1  UNL1        0.1356
     26 C          20.3355   38.8702   33.8546 C.2     1  UNL1       -0.0017
     27 C          20.1163   39.3451   35.0557 C.2     1  UNL1       -0.0029
@<TRIPOS>BOND
     1    14    15    1
     2    15    24   ar
     3    15    16   ar
     4    16    17   ar
     5    16    13    1
     6    17    18   ar
     7    18    23   ar
     8    18    19   ar
     9    19    20   ar
    10    20    21   ar
    11    21    22   ar
    12    22    23   ar
    13    23    24   ar
    14    13    12    1
    15    12     1    1
    16     1     5   ar
    17     1     2   ar
    18     2     3   ar
    19     3     4   ar
    20     4     5   ar
    21     4     6    1
    22     5    25    1
    23    25    26    1
    24    26    27    2
    25     6    11    1
    26     6     7    1
    27     7     8    1
    28     8     9    1
    29     9    10    1
    30    10    11    1
@<TRIPOS>MOLECULE
ZINC30722768
 26 28 0 0 0
SMALL
GASTEIGER

@<TRIPOS>ATOM
      1 C          23.6870   40.0378   28.0657 C.ar    1  UNL1        0.0880
      2 C          23.0281   41.2813   27.9305 C.ar    1  UNL1        0.1262
      3 N          21.9014   41.2156   28.5848 N.ar    1  UNL1       -0.1623
      4 N          21.7831   39.9444   29.1578 N.ar    1  UNL1       -0.2161
      5 C          22.8758   39.2279   28.8342 C.ar    1  UNL1        0.0676
      6 C          20.7114   39.4948   29.9351 C.ar    1  UNL1        0.1634
      7 C          20.7908   39.5609   31.3207 C.ar    1  UNL1        0.0388
      8 C          19.7210   39.1169   32.0784 C.ar    1  UNL1        0.0047
      9 C          18.6088   38.6106   31.4204 C.ar    1  UNL1        0.0208
     10 C          18.6007   38.5702   30.0397 C.ar    1  UNL1        0.1006
     11 N          19.6334   39.0054   29.3445 N.ar    1  UNL1       -0.2250
     12 N          25.0538   38.9783   26.3377 N.am    1  UNL1       -0.2714
     13 C          24.9946   39.6736   27.4908 C.2     1  UNL1        0.2520
     14 O          26.0201   40.0004   28.0570 O.2     1  UNL1       -0.2698
     15 C          23.7720   39.5678   24.3400 C.3     1  UNL1        0.0233
     16 C          23.8259   38.6903   25.5922 C.3     1  UNL1        0.0941
     17 C          26.3459   38.5107   25.8298 C.3     1  UNL1        0.1269
     18 C          26.5277   37.0567   26.1821 C.ar    1  UNL1        0.0281
     19 C          26.6146   35.9838   25.3590 C.ar    1  UNL1        0.0053
     20 C          26.7831   34.7271   25.9106 C.ar    1  UNL1        0.0182
     21 C          26.8562   34.6061   27.2597 C.ar    1  UNL1        0.0867
     22 S          26.6923   36.3024   27.7917 S.2     1  UNL1       -0.0782
     23 CL         27.0631   33.1744   28.2194 Cl      1  UNL1       -0.0752
     24 C          23.1633   37.8058   29.2416 C.3     1  UNL1        0.0406
     25 C          21.9080   36.9542   29.0419 C.3     1  UNL1        0.0063
     26 C          23.5744   37.7706   30.7149 C.3     1  UNL1        0.0063
@<TRIPOS>BOND
     1    15    16    1
     2    16    12    1
     3    12    17    1
     4    12    13   am
     5    17    18    1
     6    18    22   ar
     7    18    19   ar
     8    19    20   ar
     9    20    21   ar
    10    21    22   ar
    11    21    23    1
    12    13    14    2
    13    13     1    1
    14     1     5   ar
    15     1     2   ar
    16     2     3   ar
    17     3     4   ar
    18     4     5   ar
    19     4     6    1
    20     5    24    1
    21    24    25    1
    22    24    26    1
    23     6    11   ar
    24     6     7   ar
    25     7     8   ar
    26     8     9   ar
    27     9    10   ar
    28    10    11   ar
@<TRIPOS>MOLECULE
ZINC22539232
 27 31 0 0 0
SMALL
GASTEIGER

@<TRIPOS>ATOM
      1 C          13.6414   37.6248   28.4656 C.ar    1  UNL1        0.1945
      2 N          14.7765   38.0022   27.9289 N.ar    1  UNL1       -0.1208
      3 N          15.5342   38.6375   28.9212 N.ar    1  UNL1       -0.1122
      4 C          14.8413   38.6204   30.0333 C.ar    1  UNL1        0.2221
      5 N          13.6536   37.9942   29.7814 N.ar    1  UNL1       -0.2806
      6 N          15.2439   39.1465   31.2541 N.pl3   1  UNL1       -0.2783
      7 C          14.9333   40.5793   31.3377 C.3     1  UNL1        0.0936
      8 C          15.2557   41.0912   32.7434 C.3     1  UNL1        0.0216
      9 C          16.7389   40.8532   33.0402 C.3     1  UNL1        0.0035
     10 C          17.0464   39.3599   32.8990 C.3     1  UNL1        0.0216
     11 C          16.6721   38.8981   31.4888 C.3     1  UNL1        0.0936
     12 C          12.5811   37.7599   30.7514 C.3     1  UNL1        0.0901
     13 C          11.3166   38.6122   30.6261 C.3     1  UNL1        0.0246
     14 C          12.2988   38.8635   31.7729 C.3     1  UNL1        0.0246
     15 S          12.3335   36.7826   27.6380 S.3     1  UNL1       -0.0673
     16 C          11.1043   38.0798   27.3264 C.3     1  UNL1        0.1321
     17 C          11.0378   39.5261   23.9583 C.ar    1  UNL1        0.1227
     18 C          10.8230   39.6834   25.3561 C.ar    1  UNL1        0.0589
     19 C          11.1518   38.4782   25.8739 C.ar    1  UNL1        0.1657
     20 O          11.5227   37.7050   24.8434 O.2     1  UNL1       -0.3569
     21 N          11.4552   38.2958   23.7906 N.ar    1  UNL1       -0.0773
     22 C          10.4424   42.4571   20.9349 C.ar    1  UNL1        0.0000
     23 C          10.0269   42.7088   22.2301 C.ar    1  UNL1        0.0000
     24 C          10.2177   41.7610   23.2151 C.ar    1  UNL1        0.0016
     25 C          10.8300   40.5491   22.9031 C.ar    1  UNL1        0.0209
     26 C          11.2518   40.3031   21.5982 C.ar    1  UNL1        0.0016
     27 C          11.0504   41.2554   20.6196 C.ar    1  UNL1        0.0000
@<TRIPOS>BOND
     1    22    27   ar
     2    22    23   ar
     3    23    24   ar
     4    24    25   ar
     5    25    26   ar
     6    25    17    1
     7    26    27   ar
     8    17    21   ar
     9    17    18   ar
    10    18    19   ar
    11    19    20   ar
    12    19    16    1
    13    20    21   ar
    14    16    15    1
    15    15     1    1
    16     1     5   ar
    17     1     2   ar
    18     2     3   ar
    19     3     4   ar
    20     4     5   ar
    21     4     6    1
    22     5    12    1
    23    12    14    1
    24    12    13    1
    25    13    14    1
    26     6    11    1
    27     6     7    1
    28     7     8    1
    29     8     9    1
    30     9    10    1
    31    10    11    1
@<TRIPOS>MOLECULE
ZINC22132132
 28 31 0 0 0
SMALL
GASTEIGER

@<TRIPOS>ATOM
      1 N          24.7021   39.8472   28.8115 N.ar    1  UNL1       -0.1141
      2 C          25.5069   40.8930   29.1106 C.ar    1  UNL1        0.4276
      3 O          26.6176   40.7209   29.5780 O.2     1  UNL1       -0.2128
      4 C          24.9916   42.2436   28.8502 C.ar    1  UNL1        0.0850
      5 C          25.7445   43.3847   29.1239 C.ar    1  UNL1        0.0077
      6 C          25.2169   44.6189   28.8619 C.ar    1  UNL1        0.0002
      7 C          23.9415   44.7467   28.3266 C.ar    1  UNL1       -0.0018
      8 C          23.1820   43.6453   28.0488 C.ar    1  UNL1       -0.0235
      9 C          23.6931   42.3698   28.3058 C.ar    1  UNL1       -0.1057
     10 N          22.9769   41.2520   28.0412 N.ar    1  UNL1       -0.5966
     11 C          23.4560   40.0575   28.2865 C.ar    1  UNL1        0.1594
     12 C          24.8794   35.8597   31.6936 C.3     1  UNL1        0.0313
     13 C          25.2402   36.6002   30.4317 C.ar    1  UNL1       -0.0127
     14 C          26.0283   36.0019   29.4582 C.ar    1  UNL1        0.0168
     15 C          26.3408   36.7082   28.3133 C.ar    1  UNL1        0.1045
     16 N          25.8998   37.9387   28.1363 N.ar    1  UNL1       -0.1834
     17 C          25.1464   38.5430   29.0408 C.ar    1  UNL1        0.3215
     18 C          24.7977   37.8942   30.2193 C.ar    1  UNL1        0.0875
     19 S          22.4524   38.6573   27.9167 S.3     1  UNL1       -0.0649
     20 C          20.8118   39.3551   28.2294 C.3     1  UNL1        0.0919
     21 C          20.6465   39.6078   29.7058 C.2     1  UNL1       -0.0140
     22 C          19.8073   38.8663   30.4154 C.2     1  UNL1       -0.0037
     23 C          19.6451   39.1142   31.8635 C.ar    1  UNL1       -0.0003
     24 C          20.7677   39.2571   32.6799 C.ar    1  UNL1       -0.0000
     25 C          20.6094   39.4941   34.0299 C.ar    1  UNL1       -0.0000
     26 C          19.3412   39.5783   34.5765 C.ar    1  UNL1       -0.0000
     27 C          18.2243   39.4323   33.7733 C.ar    1  UNL1       -0.0000
     28 C          18.3689   39.2008   32.4208 C.ar    1  UNL1       -0.0000
@<TRIPOS>UNITY_ATOM_ATTR
1 1
charge 1
10 1
charge -1
@<TRIPOS>BOND
     1    12    13    1
     2    13    18   ar
     3    13    14   ar
     4    14    15   ar
     5    15    16   ar
     6    16    17   ar
     7    17    18   ar
     8    17     1    1
     9     1    11   ar
    10     1     2   ar
    11     2     3    2
    12     2     4   ar
    13     4     9   ar
    14     4     5   ar
    15     5     6   ar
    16     6     7   ar
    17     7     8   ar
    18     8     9   ar
    19     9    10   ar
    20    10    11   ar
    21    11    19    1
    22    19    20    1
    23    20    21    1
    24    21    22    2
    25    22    23    1
    26    23    28   ar
    27    23    24   ar
    28    24    25   ar
    29    25    26   ar
    30    26    27   ar
    31    27    28   ar
@<TRIPOS>MOLECULE
ZINC24060056
 26 30 0 0 0
SMALL
GASTEIGER

@<TRIPOS>ATOM
      1 C          23.3545   39.4559   28.0097 C.ar    1  UNL1        0.1986
      2 N          22.6708   40.5613   27.8175 N.ar    1  UNL1       -0.1217
      3 N          21.6580   40.5965   28.6079 N.ar    1  UNL1       -0.1282
      4 C          21.6391   39.5201   29.3597 C.ar    1  UNL1        0.1682
      5 N          22.7246   38.7572   28.9995 N.ar    1  UNL1       -0.2920
      6 C          20.6390   39.1908   30.3977 C.ar    1  UNL1        0.0551
      7 C          20.7960   39.6536   31.7096 C.ar    1  UNL1        0.0062
      8 C          19.8316   39.3179   32.6431 C.ar    1  UNL1        0.0208
      9 C          18.7534   38.5431   32.2542 C.ar    1  UNL1        0.0989
     10 N          18.6314   38.1211   31.0105 N.ar    1  UNL1       -0.2422
     11 C          19.5198   38.4186   30.0848 C.ar    1  UNL1        0.1019
     12 C          23.1230   37.4642   29.5613 C.3     1  UNL1        0.0889
     13 C          23.8092   37.4693   30.9288 C.3     1  UNL1        0.0246
     14 C          24.6211   37.1708   29.6659 C.3     1  UNL1        0.0246
     15 S          24.8163   38.9693   27.1547 S.3     1  UNL1       -0.0294
     16 C          23.8470   40.4388   22.8963 C.ar    1  UNL1        0.0088
     17 C          24.1011   39.9624   24.1244 C.ar    1  UNL1        0.0062
     18 C          24.8583   40.7769   25.0582 C.ar    1  UNL1        0.0480
     19 C          25.2635   42.0338   24.5568 C.ar    1  UNL1        0.1141
     20 S          24.6201   42.0454   22.9045 S.2     1  UNL1       -0.0722
     21 N          25.9576   42.8770   25.2951 N.ar    1  UNL1       -0.2173
     22 C          26.2924   42.5621   26.5318 C.ar    1  UNL1        0.1998
     23 N          25.9476   41.4047   27.0657 N.ar    1  UNL1       -0.2172
     24 C          25.2510   40.4994   26.3967 C.ar    1  UNL1        0.1171
     25 C          24.0075   39.5874   20.5729 C.3     1  UNL1        0.0056
     26 C          23.0842   39.7764   21.7783 C.3     1  UNL1        0.0330
@<TRIPOS>BOND
     1    25    26    1
     2    26    16    1
     3    16    20   ar
     4    16    17   ar
     5    17    18   ar
     6    18    24   ar
     7    18    19   ar
     8    19    20   ar
     9    19    21   ar
    10    21    22   ar
    11    22    23   ar
    12    23    24   ar
    13    24    15    1
    14    15     1    1
    15     1     5   ar
    16     1     2   ar
    17     2     3   ar
    18     3     4   ar
    19     4     5   ar
    20     4     6    1
    21     5    12    1
    22    12    14    1
    23    12    13    1
    24    13    14    1
    25     6    11   ar
    26     6     7   ar
    27     7     8   ar
    28     8     9   ar
    29     9    10   ar
    30    10    11   ar
@<TRIPOS>MOLECULE
ZINC18080642
 27 29 0 0 0
SMALL
GASTEIGER

@<TRIPOS>ATOM
      1 C          21.3684   38.5859   30.0836 C.ar    1  UNL1        0.0518
      2 C          21.5510   38.9136   31.4302 C.ar    1  UNL1        0.0046
      3 C          20.4624   39.1323   32.2455 C.ar    1  UNL1        0.0031
      4 C          19.1755   39.0164   31.7252 C.ar    1  UNL1        0.0340
      5 C          18.9857   38.6817   30.3734 C.ar    1  UNL1       -0.1132
      6 C          20.0845   38.4674   29.5566 C.ar    1  UNL1       -0.0193
      7 N          17.6902   38.5740   29.8876 N.ar    1  UNL1       -0.6386
      8 C          16.6357   38.7855   30.6935 C.ar    1  UNL1       -0.0158
      9 S          15.0611   38.6384   30.0378 S.2     1  UNL1       -0.0582
     10 N          16.7639   39.1067   31.9902 N.ar    1  UNL1       -0.3061
     11 C          17.9800   39.2365   32.5634 C.ar    1  UNL1        0.2583
     12 O          18.0875   39.5278   33.7388 O.2     1  UNL1       -0.2671
     13 C          22.2102   40.5795   28.2717 C.3     1  UNL1        0.1155
     14 N          22.9699   39.3321   28.3857 N.am    1  UNL1       -0.2702
     15 C          22.5454   38.3579   29.2146 C.2     1  UNL1        0.2493
     16 O          23.1286   37.2923   29.2489 O.2     1  UNL1       -0.2699
     17 C          24.1912   39.1437   27.5988 C.3     1  UNL1        0.1206
     18 C          25.1213   40.3071   27.8286 C.ar    1  UNL1       -0.0001
     19 C          25.7313   40.4717   29.0584 C.ar    1  UNL1       -0.0025
     20 C          26.5886   41.5353   29.2689 C.ar    1  UNL1        0.0020
     21 C          26.8330   42.4385   28.2516 C.ar    1  UNL1        0.0296
     22 C          26.2187   42.2776   27.0215 C.ar    1  UNL1        0.1399
     23 C          25.3600   41.2117   26.8117 C.ar    1  UNL1        0.0270
     24 F          26.4566   43.1601   26.0265 F       1  UNL1       -0.2042
     25 C          15.5617   39.3202   32.7998 C.3     1  UNL1        0.1341
     26 C          15.2018   40.7836   32.7885 C.2     1  UNL1       -0.0017
     27 C          15.5892   41.5609   33.7692 C.2     1  UNL1       -0.0029
@<TRIPOS>UNITY_ATOM_ATTR
7 1
charge -1
@<TRIPOS>BOND
     1    13    14    1
     2    14    17    1
     3    14    15   am
     4    17    18    1
     5    18    23   ar
     6    18    19   ar
     7    19    20   ar
     8    20    21   ar
     9    21    22   ar
    10    22    23   ar
    11    22    24    1
    12    15    16    2
    13    15     1    1
    14     1     6   ar
    15     1     2   ar
    16     2     3   ar
    17     3     4   ar
    18     4    11   ar
    19     4     5   ar
    20     5     6   ar
    21     5     7   ar
    22     7     8   ar
    23     8     9    2
    24     8    10   ar
    25    10    11   ar
    26    10    25    1
    27    11    12    2
    28    25    26    1
    29    26    27    2
@<TRIPOS>MOLECULE
ZINC27541976
 29 32 0 0 0
SMALL
GASTEIGER

@<TRIPOS>ATOM
      1 C          24.6521   37.5563   29.8341 C.2     1  UNL1        0.0057
      2 C          23.3173   37.3349   29.8353 C.2     1  UNL1        0.0421
      3 C          24.8069   36.2239   32.7099 C.3     1  UNL1        0.0540
      4 C          25.6557   35.8819   31.5124 C.ar    1  UNL1        0.0800
      5 C          25.5741   36.4861   30.2357 C.ar    1  UNL1        0.0286
      6 C          26.5265   35.8783   29.4365 C.ar    1  UNL1        0.0574
      7 N          27.1509   34.9560   30.1882 N.ar    1  UNL1       -0.2507
      8 N          26.5897   34.9726   31.4698 N.ar    1  UNL1       -0.1737
      9 C          26.8104   36.1923   27.9903 C.3     1  UNL1        0.0518
     10 C          28.2332   34.0765   29.7394 C.3     1  UNL1        0.1534
     11 C          27.6694   32.7226   29.3932 C.ar    1  UNL1        0.0021
     12 C          27.4383   32.3873   28.0722 C.ar    1  UNL1       -0.0023
     13 C          26.9265   31.1432   27.7543 C.ar    1  UNL1       -0.0003
     14 C          26.6407   30.2363   28.7577 C.ar    1  UNL1       -0.0000
     15 C          26.8669   30.5736   30.0790 C.ar    1  UNL1       -0.0003
     16 C          27.3787   31.8177   30.3970 C.ar    1  UNL1       -0.0023
     17 C          22.4280   38.3670   29.4480 C.2     1  UNL1        0.1956
     18 O          22.6893   39.0669   28.4860 O.2     1  UNL1       -0.2866
     19 C          21.1830   38.5946   30.2108 C.ar    1  UNL1        0.0390
     20 C          21.2444   39.0045   31.5451 C.ar    1  UNL1        0.0047
     21 C          20.0821   39.2204   32.2517 C.ar    1  UNL1        0.0193
     22 C          18.8484   39.0211   31.6416 C.ar    1  UNL1        0.0829
     23 C          18.7836   38.6081   30.3152 C.ar    1  UNL1        0.0193
     24 C          19.9418   38.3950   29.6012 C.ar    1  UNL1        0.0047
     25 N          17.6703   39.2362   32.3635 N.ar    1  UNL1       -0.2281
     26 C          17.5872   39.6075   33.6676 C.ar    1  UNL1        0.1020
     27 C          16.2752   39.7105   33.9811 C.ar    1  UNL1        0.0431
     28 C          15.5320   39.3850   32.8408 C.ar    1  UNL1        0.1221
     29 N          16.3651   39.1012   31.8728 N.ar    1  UNL1       -0.1635
@<TRIPOS>BOND
     1     3     4    1
     2     4     8   ar
     3     4     5   ar
     4     5     6   ar
     5     5     1    1
     6     6     7   ar
     7     6     9    1
     8     7     8   ar
     9     7    10    1
    10    10    11    1
    11    11    16   ar
    12    11    12   ar
    13    12    13   ar
    14    13    14   ar
    15    14    15   ar
    16    15    16   ar
    17     1     2    2
    18     2    17    1
    19    17    18    2
    20    17    19    1
    21    19    24   ar
    22    19    20   ar
    23    20    21   ar
    24    21    22   ar
    25    22    23   ar
    26    22    25    1
    27    23    24   ar
    28    25    29   ar
    29    25    26   ar
    30    26    27   ar
    31    27    28   ar
    32    28    29   ar
@<TRIPOS>MOLECULE
ZINC29539787
 29 32 0 0 0
SMALL
GASTEIGER

@<TRIPOS>ATOM
      1 N          20.2244   38.2335   30.3020 N.ar    1  UNL1       -0.1649
      2 C          20.8980   38.7486   31.3506 C.ar    1  UNL1        0.2809
      3 O          22.1139   38.6873   31.3948 O.2     1  UNL1       -0.2653
      4 C          20.1435   39.3843   32.4390 C.ar    1  UNL1        0.0592
      5 C          20.7785   39.9356   33.5510 C.ar    1  UNL1        0.0048
      6 C          20.0234   40.5196   34.5441 C.ar    1  UNL1        0.0002
      7 C          18.6389   40.5645   34.4473 C.ar    1  UNL1        0.0001
      8 C          17.9919   40.0260   33.3566 C.ar    1  UNL1        0.0017
      9 C          18.7362   39.4343   32.3379 C.ar    1  UNL1        0.0245
     10 C          18.0949   38.8390   31.1550 C.ar    1  UNL1        0.1072
     11 N          18.8326   38.2879   30.2220 N.ar    1  UNL1       -0.1616
     12 C          16.6266   38.8679   31.0164 C.ar    1  UNL1        0.0488
     13 C          15.6778   39.2097   31.9449 C.ar    1  UNL1        0.0086
     14 C          14.3508   39.1671   31.5809 C.ar    1  UNL1        0.0075
     15 C          14.0217   38.7783   30.3216 C.ar    1  UNL1        0.0355
     16 S          15.6226   38.4679   29.5952 S.2     1  UNL1       -0.0849
     17 C          20.9755   37.5993   29.2157 C.3     1  UNL1        0.2448
     18 C          20.9954   38.2317   26.8786 C.3     1  UNL1        0.1698
     19 N          21.3832   38.6201   28.2412 N.4     1  UNL1        0.3031
     20 H          20.8951   39.4856   28.4712 H       1  UNL1        0.2096
     21 C          22.8266   38.8801   28.3238 C.3     1  UNL1        0.1353
     22 C          23.0646   40.3647   28.4253 C.ar    1  UNL1        0.0334
     23 C          21.9894   41.2344   28.4743 C.ar    1  UNL1        0.0014
     24 C          22.1986   42.5984   28.5724 C.ar    1  UNL1        0.0006
     25 C          23.4828   43.1014   28.6114 C.ar    1  UNL1        0.0103
     26 C          24.5722   42.2301   28.5569 C.ar    1  UNL1        0.0683
     27 C          24.3536   40.8540   28.4633 C.ar    1  UNL1        0.0117
     28 C          25.9078   42.7450   28.5965 C.1     1  UNL1        0.1004
     29 N          26.9674   43.1536   28.6280 N.1     1  UNL1       -0.1908
@<TRIPOS>UNITY_ATOM_ATTR
19 1
charge 1
@<TRIPOS>BOND
     1    18    19    1
     2    19    21    1
     3    19    17    1
     4    21    22    1
     5    22    27   ar
     6    22    23   ar
     7    23    24   ar
     8    24    25   ar
     9    25    26   ar
    10    26    27   ar
    11    26    28    1
    12    28    29    3
    13    17     1    1
    14     1    11   ar
    15     1     2   ar
    16     2     3    2
    17     2     4   ar
    18     4     9   ar
    19     4     5   ar
    20     5     6   ar
    21     6     7   ar
    22     7     8   ar
    23     8     9   ar
    24     9    10   ar
    25    10    11   ar
    26    10    12    1
    27    12    16   ar
    28    12    13   ar
    29    13    14   ar
    30    14    15   ar
    31    15    16   ar
    32    19    20    1
@<TRIPOS>MOLECULE
ZINC24702159
 29 32 0 0 0
SMALL
GASTEIGER

@<TRIPOS>ATOM
      1 C          17.8417   40.6949   33.0015 C.2     1  UNL1        0.2504
      2 O          17.7767   41.8655   33.3234 O.2     1  UNL1       -0.2699
      3 N          18.9618   39.9883   33.2515 N.am    1  UNL1       -0.2736
      4 C          15.4144   40.2176   34.4908 C.3     1  UNL1        0.0523
      5 C          15.5066   39.8074   33.0436 C.ar    1  UNL1        0.0654
      6 C          16.6930   40.0472   32.3366 C.ar    1  UNL1        0.0673
      7 C          16.7774   39.6610   30.9986 C.ar    1  UNL1        0.0104
      8 C          15.6608   39.0525   30.4213 C.ar    1  UNL1        0.0565
      9 C          15.3643   38.5242   29.0932 C.ar    1  UNL1        0.1232
     10 N          14.1464   38.0648   29.1154 N.ar    1  UNL1       -0.1664
     11 N          13.5866   38.2463   30.3836 N.ar    1  UNL1       -0.2360
     12 C          14.5012   38.8510   31.1989 C.ar    1  UNL1        0.1604
     13 N          14.4732   39.2374   32.4705 N.ar    1  UNL1       -0.2310
     14 C          12.2319   37.8506   30.7766 C.3     1  UNL1        0.1069
     15 C          11.5908   38.9720   31.5966 C.3     1  UNL1        0.0264
     16 C          11.3928   37.5911   29.5238 C.3     1  UNL1        0.0264
     17 C          20.0389   40.5808   34.0484 C.3     1  UNL1        0.0761
     18 C          20.6458   39.7258   35.1626 C.3     1  UNL1        0.0215
     19 C          19.7375   40.9060   35.5128 C.3     1  UNL1        0.0215
     20 C          19.1048   38.6302   32.7213 C.3     1  UNL1        0.1204
     21 C          19.9840   38.6586   31.4977 C.ar    1  UNL1       -0.0023
     22 C          21.3593   38.6820   31.6352 C.ar    1  UNL1       -0.0029
     23 C          22.1659   38.7035   30.5128 C.ar    1  UNL1       -0.0045
     24 C          21.5970   38.7109   29.2529 C.ar    1  UNL1       -0.0225
     25 C          20.2216   38.6928   29.1154 C.ar    1  UNL1       -0.0045
     26 C          19.4151   38.6669   30.2379 C.ar    1  UNL1       -0.0029
     27 C          22.4762   38.7382   28.0292 C.3     1  UNL1        0.0224
     28 C          23.7975   38.0298   28.3347 C.3     1  UNL1        0.0047
     29 C          21.7685   38.0228   26.8768 C.3     1  UNL1        0.0047
@<TRIPOS>BOND
     1     4     5    1
     2     5    13   ar
     3     5     6   ar
     4     6     7   ar
     5     6     1    1
     6     7     8   ar
     7     8    12   ar
     8     8     9   ar
     9     9    10   ar
    10    10    11   ar
    11    11    12   ar
    12    11    14    1
    13    12    13   ar
    14    14    15    1
    15    14    16    1
    16     1     2    2
    17     1     3   am
    18     3    20    1
    19     3    17    1
    20    20    21    1
    21    21    26   ar
    22    21    22   ar
    23    22    23   ar
    24    23    24   ar
    25    24    25   ar
    26    24    27    1
    27    25    26   ar
    28    27    28    1
    29    27    29    1
    30    17    19    1
    31    17    18    1
    32    18    19    1
@<TRIPOS>MOLECULE
ZINC26703047
 24 26 0 0 0
SMALL
GASTEIGER

@<TRIPOS>ATOM
      1 C          18.8927   38.8254   31.4096 C.2     1  UNL1        0.3417
      2 O          19.6704   39.4644   32.0897 O.2     1  UNL1       -0.2449
      3 C          17.4370   38.9954   31.5950 C.ar    1  UNL1        0.0771
      4 C          16.9452   39.6268   32.7396 C.ar    1  UNL1        0.0065
      5 C          15.5850   39.7798   32.9121 C.ar    1  UNL1        0.0017
      6 C          14.7053   39.3196   31.9496 C.ar    1  UNL1        0.0175
      7 C          15.1844   38.6899   30.8078 C.ar    1  UNL1        0.0643
      8 C          16.5484   38.5263   30.6270 C.ar    1  UNL1        0.0240
      9 N          14.2873   38.2201   29.8378 N.ar    1  UNL1       -0.3036
     10 C          12.9489   38.0199   30.0215 C.ar    1  UNL1        0.0802
     11 C          12.4279   37.5674   28.8629 C.ar    1  UNL1        0.0205
     12 C          13.4822   37.4760   27.9320 C.ar    1  UNL1        0.0205
     13 C          14.6078   37.8811   28.5543 C.ar    1  UNL1        0.0802
     14 O          19.3578   37.9619   30.4862 O.3     1  UNL1       -0.4368
     15 C          20.1489   38.5179   29.4030 C.3     1  UNL1        0.2769
     16 C          21.0064   37.4352   28.8002 C.2     1  UNL1        0.2175
     17 O          20.4878   36.4778   28.2663 O.2     1  UNL1       -0.2874
     18 C          24.5115   37.5136   30.1309 C.ar    1  UNL1        0.0001
     19 C          25.2340   37.7378   28.9711 C.ar    1  UNL1        0.0005
     20 C          24.5850   37.8632   27.7561 C.ar    1  UNL1        0.0068
     21 C          23.2093   37.7661   27.6913 C.ar    1  UNL1        0.0374
     22 C          22.4724   37.5396   28.8593 C.ar    1  UNL1        0.0447
     23 C          23.1373   37.4189   30.0843 C.ar    1  UNL1        0.0035
     24 BR         22.3235   37.9392   26.0295 Br      1  UNL1       -0.0489
@<TRIPOS>BOND
     1    18    23   ar
     2    18    19   ar
     3    19    20   ar
     4    20    21   ar
     5    21    22   ar
     6    21    24    1
     7    22    23   ar
     8    22    16    1
     9    16    17    2
    10    16    15    1
    11    15    14    1
    12    14     1    1
    13     1     2    2
    14     1     3    1
    15     3     8   ar
    16     3     4   ar
    17     4     5   ar
    18     5     6   ar
    19     6     7   ar
    20     7     8   ar
    21     7     9    1
    22     9    13   ar
    23     9    10   ar
    24    10    11   ar
    25    11    12   ar
    26    12    13   ar
@<TRIPOS>MOLECULE
ZINC27659282
 28 29 0 0 0
SMALL
GASTEIGER

@<TRIPOS>ATOM
      1 C          22.9366   36.8641   29.9850 C.3     1  UNL1        0.0504
      2 C          22.9117   38.1691   29.2316 C.ar    1  UNL1        0.0414
      3 C          23.7991   38.5439   28.2959 C.ar    1  UNL1        0.0142
      4 C          23.3837   39.8783   27.8396 C.ar    1  UNL1        0.0140
      5 C          22.2443   40.1891   28.5644 C.ar    1  UNL1        0.0414
      6 N          21.9818   39.1590   29.3927 N.ar    1  UNL1       -0.3135
      7 C          21.4406   41.4586   28.4487 C.3     1  UNL1        0.0504
      8 C          20.9051   39.1070   30.2880 C.ar    1  UNL1        0.0633
      9 C          19.6967   38.5496   29.8912 C.ar    1  UNL1        0.0175
     10 C          18.6391   38.4947   30.7775 C.ar    1  UNL1        0.0014
     11 C          18.7827   38.9939   32.0593 C.ar    1  UNL1        0.0039
     12 C          19.9847   39.5490   32.4575 C.ar    1  UNL1        0.0729
     13 C          21.0461   39.6073   31.5753 C.ar    1  UNL1        0.0213
     14 C          20.1371   40.0914   33.8552 C.3     1  UNL1        0.4186
     15 F          19.7551   41.4371   33.8775 F       1  UNL1       -0.1659
     16 F          19.3248   39.3617   34.7298 F       1  UNL1       -0.1659
     17 F          21.4728   39.9791   34.2560 F       1  UNL1       -0.1659
     18 C          24.0159   40.6802   26.8564 C.2     1  UNL1        0.0180
     19 C          25.1746   41.3672   27.1655 C.2     1  UNL1        0.1439
     20 C          25.8171   41.1561   28.4277 C.1     1  UNL1        0.1070
     21 N          26.3268   40.9886   29.4290 N.1     1  UNL1       -0.1906
     22 C          25.7466   42.3131   26.1999 C.2     1  UNL1        0.3519
     23 O          25.1532   42.5620   25.1682 O.2     1  UNL1       -0.2441
     24 O          26.9301   42.9061   26.4572 O.3     1  UNL1       -0.4331
     25 C          26.9066   44.3312   26.7354 C.3     1  UNL1        0.2583
     26 C          28.2562   44.9463   26.3599 C.3     1  UNL1        0.0645
     27 C          26.6507   44.5471   28.1687 C.1     1  UNL1        0.1167
     28 N          26.4531   44.7139   29.2749 N.1     1  UNL1       -0.1922
@<TRIPOS>BOND
     1     1     2    1
     2     2     6   ar
     3     2     3   ar
     4     3     4   ar
     5     4     5   ar
     6     4    18    1
     7     5     6   ar
     8     5     7    1
     9     6     8    1
    10     8    13   ar
    11     8     9   ar
    12     9    10   ar
    13    10    11   ar
    14    11    12   ar
    15    12    13   ar
    16    12    14    1
    17    14    15    1
    18    14    16    1
    19    14    17    1
    20    18    19    2
    21    19    20    1
    22    19    22    1
    23    20    21    3
    24    22    23    2
    25    22    24    1
    26    24    25    1
    27    25    26    1
    28    25    27    1
    29    27    28    3
@<TRIPOS>MOLECULE
ZINC29428497
 27 28 0 0 0
SMALL
GASTEIGER

@<TRIPOS>ATOM
      1 O          19.5061   37.9167   29.3471 O.2     1  UNL1       -0.3672
      2 N          19.4841   38.8048   30.4498 N.2     1  UNL1       -0.0807
      3 C          18.9822   38.4216   31.5795 C.2     1  UNL1        0.1447
      4 C          18.9593   39.3463   32.7276 C.ar    1  UNL1        0.0819
      5 C          17.7669   39.9773   33.0975 C.ar    1  UNL1        0.1735
      6 C          17.7509   40.8399   34.1782 C.ar    1  UNL1        0.1970
      7 C          18.9161   41.0878   34.8888 C.ar    1  UNL1        0.1991
      8 C          20.1029   40.4698   34.5235 C.ar    1  UNL1        0.1970
      9 C          20.1310   39.6009   33.4479 C.ar    1  UNL1        0.1735
     10 F          21.2877   38.9997   33.0933 F       1  UNL1       -0.2016
     11 F          21.2338   40.7167   35.2202 F       1  UNL1       -0.1993
     12 F          18.8951   41.9352   35.9407 F       1  UNL1       -0.1993
     13 F          16.5990   41.4460   34.5400 F       1  UNL1       -0.1993
     14 F          16.6322   39.7407   32.4033 F       1  UNL1       -0.2016
     15 C          20.8111   37.4437   29.0077 C.3     1  UNL1        0.3225
     16 N          22.6540   38.8609   28.1628 N.am    1  UNL1       -0.2706
     17 C          23.4016   38.5313   29.3787 C.3     1  UNL1        0.1153
     18 C          21.4208   38.3519   27.9711 C.2     1  UNL1        0.2735
     19 O          20.8018   38.6248   26.9645 O.2     1  UNL1       -0.2707
     20 C          23.2466   39.7438   27.1551 C.3     1  UNL1        0.1203
     21 C          24.8075   44.7250   29.6341 C.3     1  UNL1        0.0310
     22 C          24.4004   43.4260   28.9875 C.ar    1  UNL1       -0.0219
     23 C          25.3664   42.5403   28.5478 C.ar    1  UNL1       -0.0045
     24 C          24.9930   41.3486   27.9551 C.ar    1  UNL1       -0.0029
     25 C          23.6537   41.0425   27.8022 C.ar    1  UNL1       -0.0024
     26 C          22.6876   41.9280   28.2423 C.ar    1  UNL1       -0.0029
     27 C          23.0610   43.1193   28.8359 C.ar    1  UNL1       -0.0045
@<TRIPOS>BOND
     1    21    22    1
     2    22    27   ar
     3    22    23   ar
     4    23    24   ar
     5    24    25   ar
     6    25    26   ar
     7    25    20    1
     8    26    27   ar
     9    20    16    1
    10    16    17    1
    11    16    18   am
    12    18    19    2
    13    18    15    1
    14    15     1    1
    15     1     2    1
    16     2     3    2
    17     3     4    1
    18     4     9   ar
    19     4     5   ar
    20     5     6   ar
    21     5    14    1
    22     6     7   ar
    23     6    13    1
    24     7     8   ar
    25     7    12    1
    26     8     9   ar
    27     8    11    1
    28     9    10    1
@<TRIPOS>MOLECULE
ZINC21979172
 25 27 0 0 0
SMALL
GASTEIGER

@<TRIPOS>ATOM
      1 C          26.5448   35.7037   28.3521 C.ar    1  UNL1        0.1103
      2 C          26.8222   34.3731   28.7673 C.ar    1  UNL1        0.0484
      3 C          26.8263   33.7985   30.1092 C.ar    1  UNL1        0.0164
      4 C          27.1271   32.4848   30.2538 C.ar    1  UNL1        0.0375
      5 S          27.4124   31.9371   28.5816 S.2     1  UNL1       -0.0674
      6 C          27.1373   33.4692   27.7327 C.ar    1  UNL1        0.1140
      7 N          27.1770   33.8547   26.4713 N.ar    1  UNL1       -0.2241
      8 C          26.9146   35.1058   26.1468 C.ar    1  UNL1        0.1407
      9 N          26.6071   36.0049   27.0641 N.ar    1  UNL1       -0.2244
     10 C          26.9672   35.5185   24.6984 C.3     1  UNL1        0.0737
     11 C          26.5091   34.6328   31.2871 C.ar    1  UNL1        0.0301
     12 C          25.3021   34.8343   31.9020 C.ar    1  UNL1        0.0070
     13 C          25.2494   35.6668   33.0003 C.ar    1  UNL1        0.0075
     14 C          26.3895   36.2585   33.4365 C.ar    1  UNL1        0.0354
     15 S          27.6008   35.6342   32.2834 S.2     1  UNL1       -0.0864
     16 S          26.1299   36.9394   29.5377 S.3     1  UNL1       -0.0864
     17 C          24.4795   37.3959   28.9514 C.3     1  UNL1        0.1296
     18 C          23.5066   37.4168   30.1320 C.3     1  UNL1        0.0218
     19 N          24.0457   38.9487   27.0755 N.am    1  UNL1       -0.2789
     20 C          24.5314   38.7627   28.3189 C.2     1  UNL1        0.2357
     21 O          25.0103   39.6953   28.9287 O.2     1  UNL1       -0.2739
     22 C          24.6972   40.2928   25.1389 C.3     1  UNL1        0.0233
     23 C          24.0000   40.2955   26.5008 C.3     1  UNL1        0.0935
     24 C          23.5690   37.8034   26.2963 C.3     1  UNL1        0.0935
     25 C          22.0404   37.8284   26.2359 C.3     1  UNL1        0.0233
@<TRIPOS>BOND
     1    22    23    1
     2    23    19    1
     3    19    24    1
     4    19    20   am
     5    24    25    1
     6    20    21    2
     7    20    17    1
     8    17    18    1
     9    17    16    1
    10    16     1    1
    11     1     9   ar
    12     1     2   ar
    13     2     6   ar
    14     2     3   ar
    15     3     4   ar
    16     3    11    1
    17     4     5   ar
    18     5     6   ar
    19     6     7   ar
    20     7     8   ar
    21     8     9   ar
    22     8    10    1
    23    11    15   ar
    24    11    12   ar
    25    12    13   ar
    26    13    14   ar
    27    14    15   ar
@<TRIPOS>MOLECULE
ZINC23198312
 29 32 0 0 0
SMALL
GASTEIGER

@<TRIPOS>ATOM
      1 N          22.6113   38.6847   29.3548 N.ar    1  UNL1       -0.3059
      2 C          23.6813   37.9229   29.7798 C.ar    1  UNL1        0.0790
      3 C          23.8014   36.7037   30.4330 C.ar    1  UNL1        0.0188
      4 C          25.0535   36.2035   30.7203 C.ar    1  UNL1        0.0016
      5 C          26.1927   36.9101   30.3611 C.ar    1  UNL1        0.0016
      6 C          26.0937   38.1109   29.7175 C.ar    1  UNL1        0.0206
      7 C          24.8349   38.6379   29.4163 C.ar    1  UNL1        0.0983
      8 N          24.4184   39.7747   28.8016 N.ar    1  UNL1       -0.2306
      9 C          23.1181   39.7989   28.7614 C.ar    1  UNL1        0.1251
     10 C          21.1929   38.3518   29.5087 C.3     1  UNL1        0.1961
     11 N          19.8490   39.5323   33.3344 N.2     1  UNL1       -0.2557
     12 C          18.9764   39.2840   32.3839 C.ar    1  UNL1        0.1450
     13 C          17.5887   39.4055   32.6398 C.ar    1  UNL1        0.0371
     14 C          16.7039   39.1496   31.6430 C.ar    1  UNL1        0.0046
     15 C          17.1718   38.7578   30.3745 C.ar    1  UNL1        0.0192
     16 C          18.4927   38.6388   30.1396 C.ar    1  UNL1        0.0841
     17 N          19.4052   38.8971   31.1290 N.ar    1  UNL1       -0.2600
     18 C          20.7235   38.7738   30.8771 C.2     1  UNL1        0.2655
     19 O          21.5316   39.0023   31.7513 O.2     1  UNL1       -0.2695
     20 C          20.1297   41.0339   35.2443 C.3     1  UNL1        0.0263
     21 C          19.3885   39.8126   34.6966 C.3     1  UNL1        0.1050
     22 C          19.6702   38.6023   35.5893 C.3     1  UNL1        0.0263
     23 C          22.2938   40.9020   28.1494 C.3     1  UNL1        0.0902
     24 C          23.0874   42.1831   28.1528 C.ar    1  UNL1       -0.0147
     25 C          24.2257   42.2932   27.3762 C.ar    1  UNL1       -0.0038
     26 C          24.9511   43.4698   27.3758 C.ar    1  UNL1       -0.0003
     27 C          24.5439   44.5332   28.1596 C.ar    1  UNL1       -0.0000
     28 C          23.4083   44.4215   28.9400 C.ar    1  UNL1       -0.0003
     29 C          22.6804   43.2463   28.9369 C.ar    1  UNL1       -0.0038
@<TRIPOS>BOND
     1    20    21    1
     2    21    22    1
     3    21    11    1
     4    11    12    2
     5    12    17   ar
     6    12    13   ar
     7    13    14   ar
     8    14    15   ar
     9    15    16   ar
    10    16    17   ar
    11    17    18   am
    12    18    19    2
    13    18    10    1
    14    10     1    1
    15     1     9   ar
    16     1     2   ar
    17     2     7   ar
    18     2     3   ar
    19     3     4   ar
    20     4     5   ar
    21     5     6   ar
    22     6     7   ar
    23     7     8   ar
    24     8     9   ar
    25     9    23    1
    26    23    24    1
    27    24    29   ar
    28    24    25   ar
    29    25    26   ar
    30    26    27   ar
    31    27    28   ar
    32    28    29   ar
@<TRIPOS>MOLECULE
ZINC11260788
 27 30 0 0 0
SMALL
GASTEIGER

@<TRIPOS>ATOM
      1 C          21.1741   37.4692   28.3762 C.2     1  UNL1        0.3767
      2 O          20.7540   36.4922   27.7855 O.2     1  UNL1       -0.2414
      3 C          20.3903   38.0620   29.4596 C.ar    1  UNL1        0.2205
      4 C          20.8985   38.6899   30.5772 C.ar    1  UNL1        0.0474
      5 C          19.8031   39.1022   31.3413 C.ar    1  UNL1        0.0408
      6 C          18.6772   38.7159   30.6711 C.ar    1  UNL1        0.1456
      7 O          19.0426   38.0951   29.5372 O.2     1  UNL1       -0.4469
      8 C          17.2886   38.9474   31.1164 C.ar    1  UNL1        0.0347
      9 C          16.2247   38.7244   30.2393 C.ar    1  UNL1        0.0053
     10 C          14.9300   38.9385   30.6620 C.ar    1  UNL1        0.0297
     11 C          14.6836   39.3830   31.9516 C.ar    1  UNL1        0.1401
     12 C          15.7358   39.6106   32.8249 C.ar    1  UNL1        0.0297
     13 C          17.0344   39.3958   32.4146 C.ar    1  UNL1        0.0053
     14 F          13.4130   39.5957   32.3589 F       1  UNL1       -0.2042
     15 O          22.3632   38.0061   28.0318 O.3     1  UNL1       -0.4366
     16 C          22.7061   37.9874   26.6447 C.3     1  UNL1        0.2548
     17 C          24.2743   41.3059   26.8812 C.ar    1  UNL1        0.1281
     18 N          23.5636   40.2191   27.1479 N.ar    1  UNL1       -0.2374
     19 C          23.5230   39.2096   26.3126 C.ar    1  UNL1        0.1098
     20 C          24.2202   39.2670   25.1454 C.ar    1  UNL1        0.0553
     21 S          24.9634   40.8879   25.2851 S.2     1  UNL1       -0.0647
     22 C          25.3813   43.6637   29.5785 C.ar    1  UNL1        0.0032
     23 C          24.7435   44.8169   29.1425 C.ar    1  UNL1        0.0207
     24 C          23.9807   44.7765   27.9896 C.ar    1  UNL1        0.0989
     25 N          23.8524   43.6603   27.3020 N.ar    1  UNL1       -0.2418
     26 C          24.4457   42.5353   27.6843 C.ar    1  UNL1        0.1050
     27 C          25.2302   42.5048   28.8378 C.ar    1  UNL1        0.0212
@<TRIPOS>BOND
     1    22    27   ar
     2    22    23   ar
     3    23    24   ar
     4    24    25   ar
     5    25    26   ar
     6    26    27   ar
     7    26    17    1
     8    17    21   ar
     9    17    18   ar
    10    18    19   ar
    11    19    20   ar
    12    19    16    1
    13    20    21   ar
    14    16    15    1
    15    15     1    1
    16     1     2    2
    17     1     3    1
    18     3     7   ar
    19     3     4   ar
    20     4     5   ar
    21     5     6   ar
    22     6     7   ar
    23     6     8    1
    24     8    13   ar
    25     8     9   ar
    26     9    10   ar
    27    10    11   ar
    28    11    12   ar
    29    11    14    1
    30    12    13   ar
@<TRIPOS>MOLECULE
ZINC04509341
 26 28 0 0 0
SMALL
GASTEIGER

@<TRIPOS>ATOM
      1 C          20.6097   39.0291   31.3543 C.2     1  UNL1        0.2251
      2 O          21.1878   38.5952   32.3283 O.2     1  UNL1       -0.2749
      3 N          21.2808   39.2176   30.2009 N.am    1  UNL1       -0.2794
      4 C          22.6736   38.7699   30.0647 C.3     1  UNL1        0.0959
      5 C          22.7799   37.8614   28.8343 C.3     1  UNL1        0.0502
      6 C          22.2094   38.5819   27.6212 C.3     1  UNL1        0.1030
      7 C          20.7505   38.9600   27.8329 C.3     1  UNL1        0.0502
      8 C          20.6324   39.8746   29.0577 C.3     1  UNL1        0.0959
      9 N          23.0170   39.7580   27.2753 N.am    1  UNL1       -0.2734
     10 C          23.5364   39.7962   25.9088 C.3     1  UNL1        0.1057
     11 C          23.8187   38.3529   25.3859 C.3     1  UNL1        0.0805
     12 S          22.3574   37.5040   26.1393 S.3     1  UNL1       -0.1216
     13 C          23.2601   40.7444   28.1608 C.2     1  UNL1        0.2257
     14 O          22.6585   40.7763   29.2134 O.2     1  UNL1       -0.2749
     15 C          24.2796   41.8078   27.8432 C.3     1  UNL1        0.0767
     16 C          23.7806   43.2008   28.3010 C.3     1  UNL1        0.0091
     17 C          25.0726   44.0225   28.4890 C.3     1  UNL1        0.0005
     18 C          26.2052   43.0104   28.7357 C.3     1  UNL1        0.0005
     19 C          25.5620   41.6091   28.6889 C.3     1  UNL1        0.0091
     20 C          19.1410   39.3574   31.4340 C.3     1  UNL1        0.0767
     21 C          18.3374   38.2809   30.7018 C.3     1  UNL1        0.0091
     22 C          16.8754   38.7195   30.5960 C.3     1  UNL1        0.0005
     23 C          18.7085   39.4076   32.9008 C.3     1  UNL1        0.0091
     24 C          18.8295   40.8420   33.4192 C.3     1  UNL1        0.0005
     25 C          20.5509   40.5203   35.2013 C.3     1  UNL1        0.0000
     26 C          19.0753   40.8194   34.9292 C.3     1  UNL1        0.0000
@<TRIPOS>BOND
     1    25    26    1
     2    26    24    1
     3    24    23    1
     4    23    20    1
     5    20    21    1
     6    20     1    1
     7    21    22    1
     8     1     2    2
     9     1     3   am
    10     3     8    1
    11     3     4    1
    12     4     5    1
    13     5     6    1
    14     6    12    1
    15     6     7    1
    16     6     9    1
    17     7     8    1
    18     9    10    1
    19     9    13   am
    20    10    11    1
    21    11    12    1
    22    13    14    2
    23    13    15    1
    24    15    19    1
    25    15    16    1
    26    16    17    1
    27    17    18    1
    28    18    19    1
@<TRIPOS>MOLECULE
ZINC16296596
 28 31 0 0 0
SMALL
GASTEIGER

@<TRIPOS>ATOM
      1 S          20.5257   38.9861   28.6608 S.3     1  UNL1       -0.0676
      2 C          21.8844   40.0205   28.2264 C.ar    1  UNL1        0.2104
      3 N          22.8142   39.7392   27.3074 N.ar    1  UNL1       -0.2050
      4 C          23.6796   40.7185   27.2387 C.ar    1  UNL1        0.1424
      5 N          23.3112   41.6676   28.1201 N.ar    1  UNL1       -0.2142
      6 N          22.1472   41.1961   28.7488 N.ar    1  UNL1       -0.1379
      7 C          23.9606   42.8855   28.3618 C.ar    1  UNL1        0.0842
      8 C          23.3765   44.0780   27.9559 C.ar    1  UNL1        0.0192
      9 C          24.0163   45.2773   28.2011 C.ar    1  UNL1        0.0015
     10 C          25.2430   45.2903   28.8391 C.ar    1  UNL1        0.0001
     11 C          25.8300   44.1040   29.2395 C.ar    1  UNL1        0.0015
     12 C          25.1923   42.9019   29.0026 C.ar    1  UNL1        0.0192
     13 C          24.8777   40.7768   26.3263 C.3     1  UNL1        0.0588
     14 C          24.4772   40.3028   24.9278 C.3     1  UNL1        0.0080
     15 C          25.9814   39.8706   26.8754 C.3     1  UNL1        0.0080
     16 C          20.9193   38.4270   30.3410 C.3     1  UNL1        0.1109
     17 C          13.8206   39.2265   31.8569 C.3     1  UNL1        0.0312
     18 C          15.2660   39.4004   32.2465 C.ar    1  UNL1       -0.0174
     19 C          15.5999   39.9903   33.4737 C.ar    1  UNL1        0.0150
     20 C          16.8970   40.1457   33.8220 C.ar    1  UNL1        0.0840
     21 N          17.8949   39.7347   32.9913 N.ar    1  UNL1       -0.2578
     22 C          17.6009   39.1564   31.7880 C.ar    1  UNL1        0.1493
     23 C          16.2569   38.9856   31.4081 C.ar    1  UNL1        0.0332
     24 N          18.5708   38.7525   30.9694 N.ar    1  UNL1       -0.2311
     25 C          19.8470   38.8956   31.2905 C.ar    1  UNL1        0.0767
     26 C          20.1966   39.4688   32.4976 C.ar    1  UNL1        0.0767
     27 C          19.1829   39.9009   33.3606 C.ar    1  UNL1        0.2671
     28 O          19.4589   40.4162   34.4324 O.2     1  UNL1       -0.2665
@<TRIPOS>BOND
     1    17    18    1
     2    18    23   ar
     3    18    19   ar
     4    19    20   ar
     5    20    21   ar
     6    21    27   ar
     7    21    22   ar
     8    22    23   ar
     9    22    24   ar
    10    24    25   ar
    11    25    26   ar
    12    25    16    1
    13    26    27   ar
    14    27    28    2
    15    16     1    1
    16     1     2    1
    17     2     6   ar
    18     2     3   ar
    19     3     4   ar
    20     4     5   ar
    21     4    13    1
    22     5     6   ar
    23     5     7    1
    24     7    12   ar
    25     7     8   ar
    26     8     9   ar
    27     9    10   ar
    28    10    11   ar
    29    11    12   ar
    30    13    14    1
    31    13    15    1
@<TRIPOS>MOLECULE
ZINC31633592
 25 27 0 0 0
SMALL
GASTEIGER

@<TRIPOS>ATOM
      1 C          27.8218   40.0218   28.0674 C.3     1  UNL1        0.0521
      2 C          26.4990   40.7360   28.1737 C.ar    1  UNL1        0.0599
      3 C          26.4790   42.0876   28.4688 C.ar    1  UNL1        0.0193
      4 C          25.2660   42.7460   28.5677 C.ar    1  UNL1        0.0842
      5 C          24.0923   42.0130   28.3579 C.ar    1  UNL1        0.0958
      6 C          24.1942   40.6410   28.0670 C.ar    1  UNL1        0.1162
      7 N          25.3822   40.0610   27.9844 N.ar    1  UNL1       -0.2428
      8 C          25.2102   44.2178   28.8873 C.3     1  UNL1        0.4193
      9 F          24.6150   44.4006   30.1401 F       1  UNL1       -0.1658
     10 F          26.5078   44.7402   28.9068 F       1  UNL1       -0.1658
     11 F          24.4561   44.8786   27.9117 F       1  UNL1       -0.1658
     12 C          22.8112   42.6472   28.4433 C.1     1  UNL1        0.1024
     13 N          21.7950   43.1502   28.5111 N.1     1  UNL1       -0.1908
     14 S          22.7344   39.6900   27.8038 S.3     1  UNL1       -0.0860
     15 C          22.6686   38.7765   29.3650 C.3     1  UNL1        0.1326
     16 C          21.2317   38.6002   29.7838 C.ar    1  UNL1        0.1920
     17 N          20.6428   39.1651   30.8480 N.ar    1  UNL1       -0.1898
     18 C          19.3890   38.7365   30.8284 C.ar    1  UNL1        0.2657
     19 O          19.2754   37.9339   29.7565 O.2     1  UNL1       -0.3322
     20 N          20.3381   37.8773   29.1748 N.ar    1  UNL1       -0.0593
     21 C          18.3315   39.0721   31.7896 C.ar    1  UNL1        0.0855
     22 C          16.9579   39.0612   31.6151 C.ar    1  UNL1        0.0118
     23 C          16.1870   39.4244   32.6940 C.ar    1  UNL1        0.0076
     24 C          16.7960   39.7699   33.8568 C.ar    1  UNL1        0.0356
     25 S          18.4809   39.5924   33.4894 S.2     1  UNL1       -0.0817
@<TRIPOS>BOND
     1     1     2    1
     2     2     7   ar
     3     2     3   ar
     4     3     4   ar
     5     4     5   ar
     6     4     8    1
     7     5     6   ar
     8     5    12    1
     9     6     7   ar
    10     6    14    1
    11    14    15    1
    12    15    16    1
    13    16    20   ar
    14    16    17   ar
    15    17    18   ar
    16    18    19   ar
    17    18    21    1
    18    19    20   ar
    19    21    25   ar
    20    21    22   ar
    21    22    23   ar
    22    23    24   ar
    23    24    25   ar
    24    12    13    3
    25     8     9    1
    26     8    10    1
    27     8    11    1
@<TRIPOS>MOLECULE
ZINC24832447
 23 25 0 0 0
SMALL
GASTEIGER

@<TRIPOS>ATOM
      1 S          20.0762   38.3731   30.3016 S.3     1  UNL1       -0.0867
      2 C          18.3963   38.7052   30.7167 C.ar    1  UNL1        0.1102
      3 C          18.0605   39.3476   31.9345 C.ar    1  UNL1        0.0417
      4 C          19.0329   39.7458   32.8578 C.ar    1  UNL1        0.0102
      5 C          18.6496   40.3609   34.0144 C.ar    1  UNL1        0.0347
      6 C          17.3041   40.5966   34.2863 C.ar    1  UNL1        0.0082
      7 C          16.3333   40.2199   33.4067 C.ar    1  UNL1        0.0197
      8 C          16.6923   39.5863   32.2093 C.ar    1  UNL1        0.0850
      9 N          15.7764   39.1965   31.3094 N.ar    1  UNL1       -0.2239
     10 C          16.1453   38.6056   30.1977 C.ar    1  UNL1        0.1993
     11 N          17.4109   38.3658   29.8949 N.ar    1  UNL1       -0.2176
     12 BR         19.9624   40.8996   35.2642 Br      1  UNL1       -0.0490
     13 C          20.3147   39.5758   28.9703 C.3     1  UNL1        0.1280
     14 C          22.4203   39.2749   27.5500 C.ar    1  UNL1        0.1099
     15 C          22.7777   38.4044   26.4199 C.ar    1  UNL1        0.0499
     16 C          21.6949   37.6496   26.1792 C.ar    1  UNL1        0.1794
     17 O          20.7251   37.9824   27.0453 O.2     1  UNL1       -0.4536
     18 C          21.1333   38.9514   27.8698 C.ar    1  UNL1        0.1404
     19 C          23.2715   40.2859   28.1988 C.2     1  UNL1        0.3440
     20 O          24.3109   39.9528   28.7334 O.2     1  UNL1       -0.2448
     21 O          22.8982   41.5809   28.1997 O.3     1  UNL1       -0.4454
     22 C          23.3500   43.8254   29.0295 C.3     1  UNL1        0.0513
     23 C          23.9452   42.5686   28.3914 C.3     1  UNL1        0.2089
@<TRIPOS>BOND
     1    22    23    1
     2    23    21    1
     3    21    19    1
     4    19    20    2
     5    19    14    1
     6    14    18   ar
     7    14    15   ar
     8    15    16   ar
     9    16    17   ar
    10    17    18   ar
    11    18    13    1
    12    13     1    1
    13     1     2    1
    14     2    11   ar
    15     2     3   ar
    16     3     8   ar
    17     3     4   ar
    18     4     5   ar
    19     5     6   ar
    20     5    12    1
    21     6     7   ar
    22     7     8   ar
    23     8     9   ar
    24     9    10   ar
    25    10    11   ar
@<TRIPOS>MOLECULE
ZINC05626847
 27 30 0 0 0
SMALL
GASTEIGER

@<TRIPOS>ATOM
      1 C          11.9054   37.3090   27.6192 C.2     1  UNL1        0.1854
      2 O          11.7086   36.1290   27.4155 O.2     1  UNL1       -0.2904
      3 C          16.2655   38.4201   30.0101 C.3     1  UNL1        0.0500
      4 C          14.8103   38.2115   29.6785 C.ar    1  UNL1        0.0373
      5 C          14.3352   37.7715   28.5013 C.ar    1  UNL1        0.0167
      6 C          12.8732   37.7249   28.6366 C.ar    1  UNL1        0.0483
      7 C          12.5981   38.1600   29.9194 C.ar    1  UNL1        0.0400
      8 N          13.7653   38.4395   30.5264 N.ar    1  UNL1       -0.3314
      9 C          11.2282   38.2940   30.5330 C.3     1  UNL1        0.0501
     10 C          13.8962   38.9259   31.9021 C.3     1  UNL1        0.1348
     11 C          15.2998   39.4989   32.1090 C.3     1  UNL1        0.1378
     12 C          15.7891   39.1825   33.5387 C.3     1  UNL1        0.0341
     13 C          16.5256   40.4918   33.9323 C.3     1  UNL1        0.0346
     14 C          15.6590   41.5480   33.2012 C.3     1  UNL1        0.1422
     15 O          15.2685   40.9240   31.9677 O.3     1  UNL1       -0.3543
     16 C          11.1542   38.3463   26.8251 C.3     1  UNL1        0.1325
     17 S          10.9163   37.7541   25.1314 S.3     1  UNL1       -0.0866
     18 C          10.7092   39.2914   24.2958 C.ar    1  UNL1        0.1070
     19 C          10.1008   40.3611   24.9697 C.ar    1  UNL1        0.0255
     20 C           9.9342   41.5551   24.3363 C.ar    1  UNL1        0.0036
     21 C          10.3863   41.6750   23.0056 C.ar    1  UNL1        0.0177
     22 C          10.2463   42.8766   22.2949 C.ar    1  UNL1        0.0015
     23 C          10.6951   42.9565   21.0112 C.ar    1  UNL1        0.0001
     24 C          11.2865   41.8581   20.3918 C.ar    1  UNL1        0.0015
     25 C          11.4428   40.6790   21.0542 C.ar    1  UNL1        0.0191
     26 C          10.9926   40.5587   22.3801 C.ar    1  UNL1        0.0818
     27 N          11.1292   39.4098   23.0522 N.ar    1  UNL1       -0.2391
@<TRIPOS>BOND
     1     3     4    1
     2     4     8   ar
     3     4     5   ar
     4     5     6   ar
     5     6     7   ar
     6     6     1    1
     7     7     8   ar
     8     7     9    1
     9     8    10    1
    10    10    11    1
    11    11    15    1
    12    11    12    1
    13    12    13    1
    14    13    14    1
    15    14    15    1
    16     1     2    2
    17     1    16    1
    18    16    17    1
    19    17    18    1
    20    18    27   ar
    21    18    19   ar
    22    19    20   ar
    23    20    21   ar
    24    21    26   ar
    25    21    22   ar
    26    22    23   ar
    27    23    24   ar
    28    24    25   ar
    29    25    26   ar
    30    26    27   ar
@<TRIPOS>MOLECULE
ZINC27905693
 29 32 0 0 0
SMALL
GASTEIGER

@<TRIPOS>ATOM
      1 C          20.3276   38.3388   30.4183 C.3     1  UNL1        0.2277
      2 C          23.9753   39.5646   27.5998 C.3     1  UNL1        0.1572
      3 C          22.6124   38.8891   27.3790 C.3     1  UNL1        0.1275
      4 N          22.0918   38.4675   28.6892 N.am    1  UNL1       -0.2721
      5 C          22.9756   37.6810   29.5641 C.3     1  UNL1        0.1256
      6 C          24.3190   38.4108   29.6762 C.3     1  UNL1        0.1640
      7 O          24.8120   38.6935   28.3644 O.3     1  UNL1       -0.3483
      8 C          20.8404   38.7875   29.0741 C.2     1  UNL1        0.2560
      9 O          20.1270   39.4366   28.3388 O.2     1  UNL1       -0.2721
     10 C          25.8047   40.3449   23.8194 C.ar    1  UNL1       -0.0000
     11 C          26.5043   40.5819   24.9878 C.ar    1  UNL1       -0.0002
     12 C          25.9122   40.3298   26.2112 C.ar    1  UNL1       -0.0019
     13 C          24.6207   39.8400   26.2661 C.ar    1  UNL1        0.0062
     14 C          23.9231   39.5975   25.0976 C.ar    1  UNL1       -0.0019
     15 C          24.5132   39.8551   23.8743 C.ar    1  UNL1       -0.0002
     16 O          19.3022   39.2313   30.8590 O.3     1  UNL1       -0.3379
     17 C          18.5967   38.7796   32.0167 C.3     1  UNL1        0.1603
     18 C          19.0692   39.5473   33.2243 C.ar    1  UNL1        0.0087
     19 C          18.8900   40.9166   33.2864 C.ar    1  UNL1       -0.0016
     20 C          19.3186   41.6201   34.3964 C.ar    1  UNL1       -0.0002
     21 C          19.9367   40.9560   35.4393 C.ar    1  UNL1       -0.0000
     22 C          20.1207   39.5875   35.3750 C.ar    1  UNL1       -0.0002
     23 C          19.6869   38.8831   34.2674 C.ar    1  UNL1       -0.0016
     24 C          17.1191   39.0054   31.8244 C.ar    1  UNL1        0.0087
     25 C          16.3162   39.2905   32.9130 C.ar    1  UNL1       -0.0016
     26 C          14.9617   39.5029   32.7358 C.ar    1  UNL1       -0.0002
     27 C          14.4084   39.4190   31.4718 C.ar    1  UNL1       -0.0000
     28 C          15.2105   39.1288   30.3840 C.ar    1  UNL1       -0.0002
     29 C          16.5659   38.9221   30.5604 C.ar    1  UNL1       -0.0016
@<TRIPOS>BOND
     1    10    15   ar
     2    10    11   ar
     3    11    12   ar
     4    12    13   ar
     5    13    14   ar
     6    13     2    1
     7    14    15   ar
     8     2     7    1
     9     2     3    1
    10     3     4    1
    11     4     5    1
    12     4     8   am
    13     5     6    1
    14     6     7    1
    15     8     9    2
    16     8     1    1
    17     1    16    1
    18    16    17    1
    19    17    18    1
    20    17    24    1
    21    18    23   ar
    22    18    19   ar
    23    19    20   ar
    24    20    21   ar
    25    21    22   ar
    26    22    23   ar
    27    24    29   ar
    28    24    25   ar
    29    25    26   ar
    30    26    27   ar
    31    27    28   ar
    32    28    29   ar
@<TRIPOS>MOLECULE
ZINC05172348
 28 29 0 0 0
SMALL
GASTEIGER

@<TRIPOS>ATOM
      1 N          22.4288   38.8266   28.6257 N.am    1  UNL1       -0.2568
      2 C          21.1628   39.2330   28.8461 C.2     1  UNL1        0.2408
      3 O          20.7968   40.3193   28.4497 O.2     1  UNL1       -0.2736
      4 C          24.4993   39.8154   24.2775 C.3     1  UNL1        0.0311
      5 C          24.3135   40.1141   25.7428 C.ar    1  UNL1       -0.0209
      6 C          24.9963   41.1660   26.3252 C.ar    1  UNL1       -0.0084
      7 C          24.8286   41.4434   27.6696 C.ar    1  UNL1       -0.0209
      8 C          23.9780   40.6699   28.4349 C.ar    1  UNL1        0.0106
      9 C          23.2913   39.6122   27.8531 C.ar    1  UNL1        0.0532
     10 C          23.4666   39.3326   26.5042 C.ar    1  UNL1        0.0106
     11 C          25.5742   42.5912   28.3001 C.3     1  UNL1        0.0311
     12 C          22.9019   37.5624   29.1950 C.3     1  UNL1        0.1144
     13 C          23.6981   37.8440   30.4708 C.3     1  UNL1        0.1272
     14 C          24.3339   36.6008   30.9368 C.1     1  UNL1        0.0750
     15 N          24.8244   35.6414   31.2966 N.1     1  UNL1       -0.1958
     16 C          20.2020   38.3377   29.5852 C.3     1  UNL1        0.1489
     17 S          20.1092   38.8524   31.3181 S.3     1  UNL1       -0.0845
     18 C          18.3624   38.9879   31.5038 C.ar    1  UNL1        0.1159
     19 C          17.8222   39.4711   32.7094 C.ar    1  UNL1        0.0876
     20 C          16.4319   39.5692   32.8330 C.ar    1  UNL1       -0.0131
     21 C          15.6476   39.1901   31.7571 C.ar    1  UNL1       -0.0115
     22 C          16.2520   38.7193   30.6055 C.ar    1  UNL1        0.0557
     23 N          17.5644   38.6340   30.5078 N.ar    1  UNL1       -0.2431
     24 C          15.3949   38.3017   29.4384 C.3     1  UNL1        0.0518
     25 C          14.1460   39.2845   31.8421 C.3     1  UNL1        0.0320
     26 C          15.8040   40.0802   34.1040 C.3     1  UNL1        0.0315
     27 C          18.6793   39.8551   33.7903 C.1     1  UNL1        0.1021
     28 N          19.3592   40.1597   34.6479 N.1     1  UNL1       -0.1908
@<TRIPOS>BOND
     1     4     5    1
     2     5    10   ar
     3     5     6   ar
     4     6     7   ar
     5     7     8   ar
     6     7    11    1
     7     8     9   ar
     8     9    10   ar
     9     9     1    1
    10     1    12    1
    11     1     2   am
    12    12    13    1
    13    13    14    1
    14    14    15    3
    15     2     3    2
    16     2    16    1
    17    16    17    1
    18    17    18    1
    19    18    23   ar
    20    18    19   ar
    21    19    20   ar
    22    19    27    1
    23    20    21   ar
    24    20    26    1
    25    21    22   ar
    26    21    25    1
    27    22    23   ar
    28    22    24    1
    29    27    28    3
@<TRIPOS>MOLECULE
ZINC13574575
 24 26 0 0 0
SMALL
GASTEIGER

@<TRIPOS>ATOM
      1 C          23.8911   40.3483   28.0116 C.ar    1  UNL1        0.1729
      2 N          24.4023   39.1412   28.0732 N.ar    1  UNL1       -0.1280
      3 N          23.5148   38.3088   28.4867 N.ar    1  UNL1       -0.1221
      4 C          22.3803   38.9311   28.7066 C.ar    1  UNL1        0.1935
      5 N          22.5802   40.2523   28.4151 N.ar    1  UNL1       -0.2883
      6 C          21.6020   41.3385   28.5129 C.3     1  UNL1        0.1340
      7 C          26.3228   44.7103   28.1066 C.3     1  UNL1        0.1539
      8 N          25.6591   43.4934   27.6323 N.ar    1  UNL1       -0.2444
      9 C          25.0974   42.5467   28.4105 C.ar    1  UNL1        0.1030
     10 C          24.5926   41.5796   27.5876 C.ar    1  UNL1        0.1092
     11 C          24.8585   41.9749   26.2560 C.ar    1  UNL1        0.2463
     12 N          25.4953   43.1182   26.2936 N.ar    1  UNL1       -0.1314
     13 O          24.5137   41.2886   25.1345 O.3     1  UNL1       -0.4551
     14 C          25.0114   41.7859   23.8908 C.3     1  UNL1        0.2543
     15 S          20.8815   38.2016   29.2779 S.3     1  UNL1       -0.0708
     16 C          20.8919   38.7676   30.9971 C.3     1  UNL1        0.0922
     17 C          19.4742   38.9448   31.4762 C.ar    1  UNL1       -0.0002
     18 C          18.4182   38.6476   30.6348 C.ar    1  UNL1       -0.0017
     19 C          17.1177   38.8040   31.0755 C.ar    1  UNL1        0.0112
     20 C          16.8718   39.2636   32.3574 C.ar    1  UNL1        0.0585
     21 C          17.9279   39.5666   33.1977 C.ar    1  UNL1        0.0225
     22 C          19.2295   39.4098   32.7559 C.ar    1  UNL1        0.0554
     23 CL         20.5557   39.7892   33.8100 Cl      1  UNL1       -0.0825
     24 CL         15.2381   39.4606   32.9106 Cl      1  UNL1       -0.0822
@<TRIPOS>BOND
     1     7     8    1
     2     8    12   ar
     3     8     9   ar
     4     9    10   ar
     5    10    11   ar
     6    10     1    1
     7    11    12   ar
     8    11    13    1
     9    13    14    1
    10     1     5   ar
    11     1     2   ar
    12     2     3   ar
    13     3     4   ar
    14     4     5   ar
    15     4    15    1
    16     5     6    1
    17    15    16    1
    18    16    17    1
    19    17    22   ar
    20    17    18   ar
    21    18    19   ar
    22    19    20   ar
    23    20    21   ar
    24    20    24    1
    25    21    22   ar
    26    22    23    1
@<TRIPOS>MOLECULE
ZINC30002395
 27 30 0 0 0
SMALL
GASTEIGER

@<TRIPOS>ATOM
      1 C          21.3213   37.7915   28.8556 C.3     1  UNL1        0.1562
      2 C          18.4241   38.8338   30.7511 C.ar    1  UNL1        0.2294
      3 N          18.9752   38.2270   29.7265 N.ar    1  UNL1       -0.2067
      4 C          20.3080   38.3448   29.8242 C.ar    1  UNL1        0.1544
      5 C          20.5794   39.0398   30.9439 C.ar    1  UNL1        0.2020
      6 O          19.4001   39.3487   31.5188 O.2     1  UNL1       -0.4316
      7 C          12.7768   39.2235   31.7858 C.3     1  UNL1        0.0310
      8 C          14.2557   39.1217   31.5147 C.ar    1  UNL1       -0.0222
      9 C          14.7019   38.7523   30.2580 C.ar    1  UNL1       -0.0041
     10 C          16.0543   38.6573   30.0034 C.ar    1  UNL1        0.0040
     11 C          16.9733   38.9343   31.0168 C.ar    1  UNL1        0.0496
     12 C          16.5166   39.3006   32.2836 C.ar    1  UNL1       -0.0177
     13 C          15.1613   39.3976   32.5235 C.ar    1  UNL1       -0.0084
     14 C          17.5016   39.5959   33.3853 C.3     1  UNL1        0.0312
     15 N          22.6086   38.4714   29.0519 N.4     1  UNL1        0.2897
     16 C          23.5799   37.5819   29.7026 C.3     1  UNL1        0.1680
     17 H          22.4513   39.2684   29.6687 H       1  UNL1        0.2078
     18 C          23.1334   38.9827   27.7788 C.3     1  UNL1        0.1537
     19 C          23.9752   40.2056   28.0373 C.ar    1  UNL1        0.1271
     20 C          25.3182   40.2606   28.0273 C.ar    1  UNL1        0.1580
     21 N          25.6925   41.5200   28.3013 N.ar    1  UNL1       -0.2091
     22 C          24.6276   42.2478   28.4807 C.ar    1  UNL1        0.1802
     23 N          23.5013   41.4832   28.3293 N.ar    1  UNL1       -0.2810
     24 C          22.2894   42.1183   28.4907 C.ar    1  UNL1        0.0889
     25 C          22.2333   43.4174   28.7805 C.ar    1  UNL1        0.0573
     26 S          23.9636   43.8549   28.8491 S.2     1  UNL1       -0.0479
     27 CL         26.3869   38.9289   27.7135 Cl      1  UNL1       -0.0598
@<TRIPOS>UNITY_ATOM_ATTR
15 1
charge 1
@<TRIPOS>BOND
     1     7     8    1
     2     8    13   ar
     3     8     9   ar
     4     9    10   ar
     5    10    11   ar
     6    11    12   ar
     7    11     2    1
     8    12    13   ar
     9    12    14    1
    10     2     6   ar
    11     2     3   ar
    12     3     4   ar
    13     4     5   ar
    14     4     1    1
    15     5     6   ar
    16     1    15    1
    17    15    16    1
    18    15    18    1
    19    18    19    1
    20    19    23   ar
    21    19    20   ar
    22    20    21   ar
    23    20    27    1
    24    21    22   ar
    25    22    26   ar
    26    22    23   ar
    27    23    24   ar
    28    24    25   ar
    29    25    26   ar
    30    15    17    1
@<TRIPOS>MOLECULE
ZINC10060793
 26 29 0 0 0
SMALL
GASTEIGER

@<TRIPOS>ATOM
      1 N          24.2507   38.7652   28.1797 N.am    1  UNL1       -0.2308
      2 C          24.8477   39.9609   28.0058 C.2     1  UNL1        0.2361
      3 O          25.8394   40.2421   28.6447 O.2     1  UNL1       -0.2741
      4 C          26.4654   34.7191   32.4774 C.ar    1  UNL1        0.1393
      5 C          25.4776   35.4544   33.1261 C.ar    1  UNL1        0.0385
      6 C          24.7769   36.4374   32.4785 C.ar    1  UNL1        0.0228
      7 C          25.0369   36.7378   31.1213 C.ar    1  UNL1        0.0895
      8 C          26.0455   35.9726   30.4932 C.ar    1  UNL1        0.0527
      9 C          26.7453   34.9886   31.1460 C.ar    1  UNL1        0.0450
     10 S          26.0601   36.6436   28.8480 S.2     1  UNL1       -0.0511
     11 C          24.7701   37.8568   29.0887 C.ar    1  UNL1        0.1692
     12 N          24.4400   37.6694   30.3445 N.ar    1  UNL1       -0.2237
     13 C          27.4825   34.0080   34.5061 C.3     1  UNL1        0.2525
     14 O          27.1481   33.7484   33.1412 O.3     1  UNL1       -0.4714
     15 C          23.0527   38.4255   27.4078 C.3     1  UNL1        0.1643
     16 C          21.8369   38.5407   28.2908 C.ar    1  UNL1        0.1434
     17 C          21.1161   39.6579   28.4951 C.ar    1  UNL1        0.0380
     18 C          20.0735   39.3154   29.3866 C.ar    1  UNL1        0.0435
     19 C          20.2196   38.0094   29.6738 C.ar    1  UNL1        0.1792
     20 O          21.2859   37.5441   29.0027 O.2     1  UNL1       -0.4529
     21 C          24.2829   40.9485   27.0176 C.3     1  UNL1        0.1185
     22 C          24.0941   42.2825   27.6926 C.ar    1  UNL1        0.0165
     23 C          23.0615   42.7134   28.4579 C.ar    1  UNL1        0.0032
     24 C          23.1042   43.9913   28.9832 C.ar    1  UNL1        0.0072
     25 C          24.1722   44.7795   28.7088 C.ar    1  UNL1        0.0351
     26 S          25.1685   43.7083   27.6854 S.2     1  UNL1       -0.0903
@<TRIPOS>BOND
     1    13    14    1
     2    14     4    1
     3     4     9   ar
     4     4     5   ar
     5     5     6   ar
     6     6     7   ar
     7     7    12   ar
     8     7     8   ar
     9     8     9   ar
    10     8    10   ar
    11    10    11   ar
    12    11    12   ar
    13    11     1    1
    14     1    15    1
    15     1     2   am
    16    15    16    1
    17    16    20   ar
    18    16    17   ar
    19    17    18   ar
    20    18    19   ar
    21    19    20   ar
    22     2     3    2
    23     2    21    1
    24    21    22    1
    25    22    26   ar
    26    22    23   ar
    27    23    24   ar
    28    24    25   ar
    29    25    26   ar
@<TRIPOS>MOLECULE
ZINC01132782
 26 28 0 0 0
SMALL
GASTEIGER

@<TRIPOS>ATOM
      1 C          27.7798   38.5436   28.9597 C.2     1  UNL1        0.0260
      2 C          26.8731   39.5298   28.7074 C.2     1  UNL1        0.1088
      3 C          27.0776   40.9313   28.8270 C.2     1  UNL1        0.2715
      4 O          28.1038   41.4862   29.1769 O.2     1  UNL1       -0.2678
      5 N          25.9232   41.5301   28.4747 N.am    1  UNL1       -0.2151
      6 C          25.0122   40.5969   28.1519 C.2     1  UNL1        0.1522
      7 S          23.4082   40.9214   27.6491 S.2     1  UNL1       -0.0174
      8 N          25.5497   39.3689   28.2768 N.am    1  UNL1       -0.2555
      9 C          25.7050   42.9141   28.4518 C.ar    1  UNL1        0.0600
     10 C          25.1400   43.5475   29.5506 C.ar    1  UNL1        0.0153
     11 C          24.9310   44.9126   29.5271 C.ar    1  UNL1        0.0013
     12 C          25.2743   45.6468   28.4067 C.ar    1  UNL1        0.0001
     13 C          25.8319   45.0179   27.3086 C.ar    1  UNL1        0.0013
     14 C          26.0481   43.6539   27.3282 C.ar    1  UNL1        0.0153
     15 C          27.1265   34.8677   27.3501 C.ar    1  UNL1        0.0073
     16 C          26.8831   34.9453   28.6847 C.ar    1  UNL1        0.0027
     17 C          27.0711   36.1409   29.3326 C.ar    1  UNL1        0.0067
     18 C          27.5071   37.2137   28.5627 C.ar    1  UNL1        0.0305
     19 S          27.6251   36.4771   26.9421 S.2     1  UNL1       -0.0912
     20 C          27.2497   32.3935   27.2402 C.3     1  UNL1        0.0056
     21 C          26.9895   33.6726   26.4422 C.3     1  UNL1        0.0330
     22 C          24.8736   38.0965   28.0117 C.3     1  UNL1        0.2074
     23 C          23.9093   37.7974   29.1305 C.2     1  UNL1        0.3380
     24 O          24.2596   37.9235   30.2800 O.2     1  UNL1       -0.2482
     25 O          22.6611   37.3908   28.8499 O.3     1  UNL1       -0.4432
     26 C          21.5750   38.0963   29.5063 C.3     1  UNL1        0.2557
@<TRIPOS>BOND
     1    20    21    1
     2    21    15    1
     3    15    19   ar
     4    15    16   ar
     5    16    17   ar
     6    17    18   ar
     7    18    19   ar
     8    18     1    1
     9     1     2    2
    10     2     8    1
    11     2     3    1
    12     3     4    2
    13     3     5   am
    14     5     6    1
    15     5     9    1
    16     6     7    2
    17     6     8    1
    18     8    22    1
    19    22    23    1
    20    23    24    2
    21    23    25    1
    22    25    26    1
    23     9    14   ar
    24     9    10   ar
    25    10    11   ar
    26    11    12   ar
    27    12    13   ar
    28    13    14   ar
@<TRIPOS>MOLECULE
ZINC31905415
 27 29 0 0 0
SMALL
GASTEIGER

@<TRIPOS>ATOM
      1 C          23.5056   52.5922   27.0180 C.3     1  UNL1        0.0208
      2 C          22.5451   52.1754   25.9024 C.3     1  UNL1        0.0994
      3 C          22.2812   50.6667   25.9898 C.3     1  UNL1        0.1623
      4 O          22.0551   50.1619   24.6542 O.3     1  UNL1       -0.2793
      5 P          23.1671   50.9857   23.7847 P.3     1  UNL1        0.4147
      6 O          24.4988   50.3465   23.8779 O.2     1  UNL1       -0.2394
      7 N          23.1489   52.4879   24.5869 N.3     1  UNL1       -0.1850
      8 C          24.5102   53.0170   24.7447 C.3     1  UNL1        0.1004
      9 C          21.0635   50.4127   26.8406 C.ar    1  UNL1        0.0064
     10 C          19.8037   50.6924   26.3451 C.ar    1  UNL1       -0.0019
     11 C          18.6864   50.4550   27.1238 C.ar    1  UNL1       -0.0002
     12 C          18.8296   49.9472   28.4014 C.ar    1  UNL1       -0.0000
     13 C          20.0898   49.6728   28.8990 C.ar    1  UNL1       -0.0002
     14 C          21.2068   49.9054   28.1185 C.ar    1  UNL1       -0.0019
     15 O          22.7060   51.1410   22.2499 O.3     1  UNL1       -0.2687
     16 C          21.3546   50.9621   21.8214 C.3     1  UNL1        0.2023
     17 C          21.2208   51.4000   20.3856 C.ar    1  UNL1        0.0162
     18 C          22.3252   51.8715   19.7010 C.ar    1  UNL1       -0.0010
     19 C          22.2036   52.2682   18.3823 C.ar    1  UNL1       -0.0002
     20 C          20.9751   52.2038   17.7518 C.ar    1  UNL1       -0.0000
     21 C          19.8695   51.7372   18.4380 C.ar    1  UNL1       -0.0002
     22 C          19.9924   51.3352   19.7549 C.ar    1  UNL1       -0.0010
     23 C          20.4607   51.7706   22.6663 C.1     1  UNL1        0.1041
     24 N          19.7709   52.3946   23.3185 N.1     1  UNL1       -0.1931
     25 C          20.9725   49.4854   21.9418 C.3     1  UNL1        0.0727
     26 C          22.0334   48.6372   21.2891 C.2     1  UNL1       -0.0222
     27 C          21.7457   47.9359   20.2207 C.2     1  UNL1       -0.0048
@<TRIPOS>BOND
     1     1     2    1
     2     2     7    1
     3     2     3    1
     4     3     4    1
     5     3     9    1
     6     4     5    1
     7     5     6    2
     8     5     7    1
     9     5    15    1
    10     7     8    1
    11    15    16    1
    12    16    25    1
    13    16    23    1
    14    16    17    1
    15    25    26    1
    16    26    27    2
    17    23    24    3
    18    17    22   ar
    19    17    18   ar
    20    18    19   ar
    21    19    20   ar
    22    20    21   ar
    23    21    22   ar
    24     9    14   ar
    25     9    10   ar
    26    10    11   ar
    27    11    12   ar
    28    12    13   ar
    29    13    14   ar
@<TRIPOS>MOLECULE
ZINC05694786
 28 31 0 0 0
SMALL
GASTEIGER

@<TRIPOS>ATOM
      1 N          12.3498   38.3138   30.0181 N.2     1  UNL1       -0.2522
      2 C          13.1875   38.8173   30.9030 C.ar    1  UNL1        0.1671
      3 C          14.6281   38.7327   30.7037 C.ar    1  UNL1        0.0819
      4 C          15.5001   39.2614   31.6358 C.ar    1  UNL1        0.0684
      5 C          16.9313   39.1222   31.3401 C.ar    1  UNL1        0.0359
      6 C          18.0269   39.5681   32.1197 C.ar    1  UNL1       -0.0170
      7 C          19.3046   39.3413   31.6754 C.ar    1  UNL1        0.0171
      8 C          19.5118   38.6848   30.4665 C.ar    1  UNL1        0.0576
      9 N          18.4908   38.2727   29.7427 N.ar    1  UNL1       -0.2434
     10 C          17.2502   38.4655   30.1343 C.ar    1  UNL1        0.1115
     11 S          15.6675   38.0558   29.4397 S.2     1  UNL1       -0.0635
     12 C          20.5022   39.7843   32.4761 C.3     1  UNL1        0.1692
     13 O          20.1100   40.7390   33.4619 O.3     1  UNL1       -0.3534
     14 C          19.0167   40.2973   34.2747 C.3     1  UNL1        0.0974
     15 C          17.7501   40.2810   33.4154 C.3     1  UNL1        0.0534
     16 C          18.8284   41.2586   35.4500 C.3     1  UNL1        0.0300
     17 C          19.3013   38.8881   34.7979 C.3     1  UNL1        0.0300
     18 N          14.9063   39.8656   32.7487 N.ar    1  UNL1       -0.3356
     19 C          13.5736   39.9207   32.8895 C.ar    1  UNL1        0.1765
     20 N          12.7321   39.4342   32.0234 N.ar    1  UNL1       -0.2064
     21 H          15.4800   40.2598   33.4450 H       1  UNL1        0.1675
     22 C          12.8612   37.5519   28.8760 C.3     1  UNL1        0.1272
     23 C          11.9238   37.7337   27.6807 C.3     1  UNL1        0.0263
     24 C          10.6895   36.5324   25.8707 C.3     1  UNL1        0.0001
     25 C          11.4677   36.3628   27.1770 C.3     1  UNL1        0.0021
     26 C          20.9174   38.4429   29.9799 C.3     1  UNL1        0.0456
     27 C          21.0763   39.0210   28.5723 C.3     1  UNL1        0.0063
     28 C          21.2795   40.5347   28.6624 C.3     1  UNL1        0.0004
@<TRIPOS>BOND
     1    24    25    1
     2    25    23    1
     3    23    22    1
     4    22     1    1
     5     1     2    2
     6     2    20   ar
     7     2     3   ar
     8     3    11   ar
     9     3     4   ar
    10     4     5   ar
    11     4    18   ar
    12     5    10   ar
    13     5     6   ar
    14     6    15    1
    15     6     7   ar
    16     7     8   ar
    17     7    12    1
    18     8     9   ar
    19     8    26    1
    20     9    10   ar
    21    10    11   ar
    22    26    27    1
    23    27    28    1
    24    12    13    1
    25    13    14    1
    26    14    15    1
    27    14    16    1
    28    14    17    1
    29    18    19   ar
    30    19    20   ar
    31    18    21    1
@<TRIPOS>MOLECULE
ZINC05579435
 26 29 0 0 0
SMALL
GASTEIGER

@<TRIPOS>ATOM
      1 S          22.7962   37.5133   29.2243 S.3     1  UNL1       -0.0673
      2 C          22.9449   37.6956   25.9258 C.3     1  UNL1        0.1337
      3 N          23.4456   38.7566   26.8032 N.ar    1  UNL1       -0.2915
      4 C          24.0292   39.9341   26.4249 C.ar    1  UNL1        0.1486
      5 N          24.3310   40.5845   27.5128 N.ar    1  UNL1       -0.1325
      6 N          23.9808   39.9039   28.5453 N.ar    1  UNL1       -0.1224
      7 C          23.4318   38.7725   28.1683 C.ar    1  UNL1        0.1934
      8 C          24.2780   40.3939   25.0115 C.3     1  UNL1        0.0987
      9 C          25.7034   40.0902   24.6279 C.ar    1  UNL1        0.0149
     10 C          26.4419   38.9851   24.8937 C.ar    1  UNL1        0.0031
     11 C          27.7449   38.9238   24.4362 C.ar    1  UNL1        0.0072
     12 C          28.2455   39.9704   23.7353 C.ar    1  UNL1        0.0351
     13 S          26.8547   41.0892   23.6987 S.2     1  UNL1       -0.0903
     14 C          21.7298   38.5096   30.2949 C.3     1  UNL1        0.1340
     15 C          20.2858   38.2162   29.9789 C.2     1  UNL1        0.1843
     16 O          19.9968   37.6157   28.9660 O.2     1  UNL1       -0.2904
     17 C          19.2265   38.6586   30.8997 C.ar    1  UNL1        0.0353
     18 C          19.5428   39.0422   32.2072 C.ar    1  UNL1        0.0025
     19 C          18.5413   39.4557   33.0547 C.ar    1  UNL1       -0.0045
     20 C          17.2166   39.4862   32.6307 C.ar    1  UNL1       -0.0261
     21 C          16.8970   39.1077   31.3439 C.ar    1  UNL1       -0.0260
     22 C          17.8967   38.6934   30.4783 C.ar    1  UNL1       -0.0017
     23 C          15.4843   39.1276   30.8203 C.3     1  UNL1        0.0260
     24 C          14.4844   39.1800   31.9735 C.3     1  UNL1        0.0050
     25 C          14.8846   40.3276   32.9083 C.3     1  UNL1        0.0050
     26 C          16.1765   39.9377   33.6233 C.3     1  UNL1        0.0260
@<TRIPOS>BOND
     1     2     3    1
     2     3     7   ar
     3     3     4   ar
     4     4     5   ar
     5     4     8    1
     6     5     6   ar
     7     6     7   ar
     8     7     1    1
     9     1    14    1
    10    14    15    1
    11    15    16    2
    12    15    17    1
    13    17    22   ar
    14    17    18   ar
    15    18    19   ar
    16    19    20   ar
    17    20    26    1
    18    20    21   ar
    19    21    22   ar
    20    21    23    1
    21    23    24    1
    22    24    25    1
    23    25    26    1
    24     8     9    1
    25     9    13   ar
    26     9    10   ar
    27    10    11   ar
    28    11    12   ar
    29    12    13   ar
@<TRIPOS>MOLECULE
ZINC31372621
 39 40 0 0 0
SMALL
GASTEIGER

@<TRIPOS>ATOM
      1 C          20.6684   51.2122   23.8608 C.3     1  UNL1        0.1073
      2 C          20.3630   52.4586   23.0587 C.2     1  UNL1       -0.1033
      3 O          19.8318   53.4081   23.5989 O.co2   1  UNL1       -0.8754
      4 C          20.6882   52.5256   21.6983 C.2     1  UNL1       -0.0014
      5 C          21.2712   51.5222   21.0230 C.2     1  UNL1        0.1741
      6 C          21.6334   50.2234   21.7060 C.3     1  UNL1        0.1110
      7 C          20.6728   50.0500   22.8751 C.2     1  UNL1        0.1654
      8 O          19.9739   49.0744   23.0094 O.2     1  UNL1       -0.2949
      9 C          23.0522   50.3598   22.2797 C.3     1  UNL1        0.0150
     10 C          23.0802   51.5336   23.2878 C.3     1  UNL1        0.0062
     11 C          22.0900   51.3203   24.4332 C.3     1  UNL1        0.0154
     12 C          22.4404   50.0304   25.1777 C.3     1  UNL1        0.0011
     13 O          21.5433   51.6779   19.7135 O.2     1  UNL1       -0.2913
     14 C          19.6525   51.0010   24.9536 C.2     1  UNL1        0.1590
     15 O          18.4871   51.2431   24.7498 O.2     1  UNL1       -0.2954
     16 C          20.0909   50.4875   26.3010 C.3     1  UNL1        0.0652
     17 C          19.0619   50.2121   28.5610 C.3     1  UNL1        0.0005
     18 C          19.2833   51.1825   27.3991 C.3     1  UNL1        0.0078
     19 C          22.1629   52.5040   25.3998 C.3     1  UNL1        0.0057
     20 C          22.9762   52.1060   26.6330 C.3     1  UNL1        0.0254
     21 C          23.6025   53.3350   27.2400 C.2     1  UNL1       -0.0346
     22 C          24.8967   53.3814   27.4371 C.2     1  UNL1       -0.0478
     23 C          25.7686   52.2368   26.9890 C.3     1  UNL1        0.0260
     24 C          25.5138   54.5792   28.1121 C.3     1  UNL1        0.0260
     25 C          24.4907   51.6876   23.8602 C.3     1  UNL1        0.0254
     26 C          25.4011   52.2611   22.8051 C.2     1  UNL1       -0.0346
     27 C          25.7234   53.5305   22.8377 C.2     1  UNL1       -0.0478
     28 C          25.2134   54.4091   23.9508 C.3     1  UNL1        0.0260
     29 C          26.6040   54.1121   21.7619 C.3     1  UNL1        0.0260
     30 C          21.5413   49.0445   20.7352 C.3     1  UNL1        0.0396
     31 C          22.9010   48.4130   20.5815 C.2     1  UNL1       -0.0337
     32 C          23.3819   48.1762   19.3862 C.2     1  UNL1       -0.0478
     33 C          22.6337   48.6478   18.1660 C.3     1  UNL1        0.0260
     34 C          24.6832   47.4321   19.2314 C.3     1  UNL1        0.0260
     35 C          20.3660   53.7939   20.9510 C.3     1  UNL1        0.0530
     36 C          19.2855   53.5188   19.9372 C.2     1  UNL1       -0.0298
     37 C          19.3409   54.0765   18.7530 C.2     1  UNL1       -0.0475
     38 C          20.5627   54.8585   18.3450 C.3     1  UNL1        0.0260
     39 C          18.1827   53.9361   17.7991 C.3     1  UNL1        0.0260
@<TRIPOS>UNITY_ATOM_ATTR
3 1
charge -1
@<TRIPOS>BOND
     1    17    18    1
     2    18    16    1
     3    16    14    1
     4    14    15    2
     5    14     1    1
     6     1     7    1
     7     1    11    1
     8     1     2    1
     9     2     4    2
    10     2     3    1
    11     4    35    1
    12     4     5    1
    13     5     6    1
    14     5    13    2
    15     6     7    1
    16     6     9    1
    17     6    30    1
    18     7     8    2
    19     9    10    1
    20    10    11    1
    21    10    25    1
    22    11    12    1
    23    11    19    1
    24    19    20    1
    25    20    21    1
    26    21    22    2
    27    22    23    1
    28    22    24    1
    29    25    26    1
    30    26    27    2
    31    27    28    1
    32    27    29    1
    33    30    31    1
    34    31    32    2
    35    32    33    1
    36    32    34    1
    37    35    36    1
    38    36    37    2
    39    37    38    1
    40    37    39    1
@<TRIPOS>MOLECULE
ZINC01367547
 38 43 0 0 0
SMALL
GASTEIGER

@<TRIPOS>ATOM
      1 N          26.0516   38.5861   27.3526 N.4     1  UNL1        0.2844
      2 H          25.9919   38.6742   28.3671 H       1  UNL1        0.2077
      3 C          26.1570   39.9379   26.7875 C.3     1  UNL1        0.1169
      4 C          26.7727   40.8618   27.8066 C.ar    1  UNL1        0.2106
      5 N          27.6716   40.5464   28.7068 N.ar    1  UNL1       -0.1069
      6 N          27.9434   41.6066   29.3864 N.ar    1  UNL1       -0.0228
      7 N          27.2413   42.5903   28.9430 N.ar    1  UNL1       -0.0426
      8 N          26.5106   42.1725   27.9651 N.ar    1  UNL1       -0.2044
      9 C          25.5697   42.9732   27.1779 C.3     1  UNL1        0.1947
     10 C          24.2155   42.9505   27.8385 C.ar    1  UNL1        0.1477
     11 C          23.6417   43.9767   28.4919 C.ar    1  UNL1        0.0382
     12 C          22.3829   43.5207   28.9460 C.ar    1  UNL1        0.0435
     13 C          22.2662   42.2405   28.5500 C.ar    1  UNL1        0.1792
     14 O          23.3791   41.9005   27.8796 O.2     1  UNL1       -0.4527
     15 C          26.2372   40.4119   24.3358 C.3     1  UNL1        0.0066
     16 C          27.0364   39.9005   25.5361 C.3     1  UNL1        0.0632
     17 C          24.8320   37.9137   26.8853 C.3     1  UNL1        0.1399
     18 C          23.7466   38.0666   27.9195 C.ar    1  UNL1        0.0622
     19 C          23.8226   37.9198   29.2648 C.ar    1  UNL1        0.0084
     20 C          22.6845   38.1119   30.0254 C.ar    1  UNL1        0.0074
     21 C          21.5261   38.4415   29.4035 C.ar    1  UNL1        0.0353
     22 S          22.0288   38.4958   27.6913 S.2     1  UNL1       -0.0850
     23 C          27.2453   37.7896   27.0382 C.3     1  UNL1        0.1365
     24 C          27.2073   36.4992   27.8157 C.ar    1  UNL1        0.0703
     25 C          27.1696   35.3175   27.1575 C.ar    1  UNL1        0.0057
     26 C          27.1385   34.0755   27.9322 C.ar    1  UNL1        0.0138
     27 C          27.1036   32.8292   27.2975 C.ar    1  UNL1       -0.0207
     28 C          27.0694   31.6875   28.0462 C.ar    1  UNL1       -0.0084
     29 C          27.0681   31.7526   29.4330 C.ar    1  UNL1       -0.0207
     30 C          27.1017   32.9688   30.0795 C.ar    1  UNL1        0.0150
     31 C          27.1373   34.1452   29.3377 C.ar    1  UNL1        0.0855
     32 N          27.1709   35.3756   29.9568 N.ar    1  UNL1       -0.1916
     33 C          27.2053   36.5296   29.2296 C.ar    1  UNL1        0.1897
     34 N          27.2317   37.5261   30.1031 N.ar    1  UNL1       -0.1079
     35 N          27.2159   37.0684   31.3033 N.ar    1  UNL1       -0.0223
     36 N          27.1793   35.7794   31.3000 N.ar    1  UNL1       -0.0386
     37 C          27.0301   30.4801   30.2394 C.3     1  UNL1        0.0311
     38 C          27.1041   32.7469   25.7927 C.3     1  UNL1        0.0311
@<TRIPOS>UNITY_ATOM_ATTR
1 1
charge 1
@<TRIPOS>BOND
     1    15    16    1
     2    16     3    1
     3     3     4    1
     4     3     1    1
     5     4     8   ar
     6     4     5   ar
     7     5     6   ar
     8     6     7   ar
     9     7     8   ar
    10     8     9    1
    11     9    10    1
    12    10    14   ar
    13    10    11   ar
    14    11    12   ar
    15    12    13   ar
    16    13    14   ar
    17     1    17    1
    18     1    23    1
    19    17    18    1
    20    18    22   ar
    21    18    19   ar
    22    19    20   ar
    23    20    21   ar
    24    21    22   ar
    25    23    24    1
    26    24    33   ar
    27    24    25   ar
    28    25    26   ar
    29    26    31   ar
    30    26    27   ar
    31    27    28   ar
    32    27    38    1
    33    28    29   ar
    34    29    30   ar
    35    29    37    1
    36    30    31   ar
    37    31    32   ar
    38    32    36   ar
    39    32    33   ar
    40    33    34   ar
    41    34    35   ar
    42    35    36   ar
    43     1     2    1
@<TRIPOS>MOLECULE
ZINC13955427
 37 40 0 0 0
SMALL
GASTEIGER

@<TRIPOS>ATOM
      1 N          25.3814   37.9434   28.2405 N.am    1  UNL1       -0.6055
      2 C          24.1233   38.3595   28.6241 C.ar    1  UNL1       -0.0852
      3 C          23.4860   39.5756   28.3516 C.ar    1  UNL1        0.0555
      4 C          22.2070   39.7597   28.8530 C.ar    1  UNL1       -0.0047
      5 C          21.6558   38.7387   29.5802 C.ar    1  UNL1        0.0996
      6 S          22.9427   37.5052   29.5626 S.2     1  UNL1       -0.1056
      7 C          21.4470   41.0366   28.6013 C.3     1  UNL1        0.0319
      8 C          20.3390   38.6757   30.2132 C.2     1  UNL1        0.3468
      9 O          19.4777   37.9495   29.7544 O.2     1  UNL1       -0.2443
     10 O          20.0795   39.4231   31.3062 O.3     1  UNL1       -0.4489
     11 C          19.3077   38.8118   32.3418 C.3     1  UNL1        0.1694
     12 C          19.9455   39.1140   33.6993 C.3     1  UNL1        0.0473
     13 C          17.8829   39.3688   32.3124 C.3     1  UNL1        0.0473
     14 C          24.1491   40.6194   27.5620 C.2     1  UNL1        0.3395
     15 O          24.0634   40.6110   26.3491 O.2     1  UNL1       -0.2450
     16 O          24.8533   41.5883   28.1815 O.3     1  UNL1       -0.4492
     17 C          24.6826   42.9438   27.6902 C.3     1  UNL1        0.1694
     18 C          23.8268   43.7400   28.6774 C.3     1  UNL1        0.0473
     19 C          26.0521   43.6113   27.5488 C.3     1  UNL1        0.0473
     20 C          26.3373   37.7432   29.1692 C.2     1  UNL1        0.0817
     21 O          26.9562   38.6881   29.6177 O.2     1  UNL1       -0.3129
     22 C          27.0179   34.7692   31.3999 C.ar    1  UNL1        0.1157
     23 C          26.7407   36.0867   30.9945 C.ar    1  UNL1        0.0235
     24 C          26.6330   36.3742   29.6425 C.ar    1  UNL1        0.0186
     25 C          26.8299   35.2697   28.7018 C.ar    1  UNL1        0.0189
     26 C          26.7467   35.4644   27.3193 C.ar    1  UNL1        0.0015
     27 C          26.9371   34.4086   26.4773 C.ar    1  UNL1        0.0001
     28 C          27.2139   33.1382   26.9770 C.ar    1  UNL1        0.0015
     29 C          27.3018   32.9141   28.3167 C.ar    1  UNL1        0.0191
     30 C          27.1108   33.9792   29.2164 C.ar    1  UNL1        0.0814
     31 N          27.1915   33.7891   30.5345 N.ar    1  UNL1       -0.2423
     32 C          28.3192   32.5430   35.7026 C.3     1  UNL1        0.0725
     33 C          27.6903   33.5042   34.7272 C.ar    1  UNL1        0.1234
     34 C          26.9017   34.5494   35.0511 C.ar    1  UNL1        0.0361
     35 C          26.5381   35.1808   33.8469 C.ar    1  UNL1        0.0418
     36 C          27.1239   34.4743   32.8414 C.ar    1  UNL1        0.1624
     37 O          27.8221   33.4621   33.3924 O.2     1  UNL1       -0.4562
@<TRIPOS>UNITY_ATOM_ATTR
1 1
charge -1
@<TRIPOS>BOND
     1    32    33    1
     2    33    37   ar
     3    33    34   ar
     4    34    35   ar
     5    35    36   ar
     6    36    37   ar
     7    36    22    1
     8    22    31   ar
     9    22    23   ar
    10    23    24   ar
    11    24    25   ar
    12    24    20    1
    13    25    30   ar
    14    25    26   ar
    15    26    27   ar
    16    27    28   ar
    17    28    29   ar
    18    29    30   ar
    19    30    31   ar
    20    20    21    2
    21    20     1    1
    22     1     2    1
    23     2     6   ar
    24     2     3   ar
    25     3     4   ar
    26     3    14    1
    27     4     5   ar
    28     4     7    1
    29     5     6   ar
    30     5     8    1
    31     8     9    2
    32     8    10    1
    33    10    11    1
    34    11    12    1
    35    11    13    1
    36    14    15    2
    37    14    16    1
    38    16    17    1
    39    17    18    1
    40    17    19    1
@<TRIPOS>MOLECULE
ZINC19940225
 35 39 0 0 0
SMALL
GASTEIGER

@<TRIPOS>ATOM
      1 C          13.2907   38.7086   30.8679 C.ar    1  UNL1        0.1164
      2 C          14.6662   38.6890   30.6793 C.ar    1  UNL1        0.0721
      3 C          15.5326   39.2203   31.6422 C.ar    1  UNL1        0.0926
      4 C          16.9712   39.1406   31.3290 C.ar    1  UNL1        0.0381
      5 C          18.0542   39.5963   32.1208 C.ar    1  UNL1       -0.0153
      6 C          19.3276   39.4318   31.6739 C.ar    1  UNL1        0.0351
      7 C          19.5583   38.8301   30.4317 C.ar    1  UNL1        0.1303
      8 N          18.5451   38.4054   29.6937 N.ar    1  UNL1       -0.2244
      9 C          17.3004   38.5416   30.1014 C.ar    1  UNL1        0.1133
     10 S          15.7327   38.0997   29.3934 S.2     1  UNL1       -0.0644
     11 C          20.5120   39.8943   32.4833 C.3     1  UNL1        0.1708
     12 O          20.0910   40.7989   33.5039 O.3     1  UNL1       -0.3533
     13 C          19.0169   40.2879   34.3018 C.3     1  UNL1        0.0974
     14 C          17.7515   40.2507   33.4419 C.3     1  UNL1        0.0535
     15 C          18.7927   41.2006   35.5092 C.3     1  UNL1        0.0300
     16 C          19.3570   38.8748   34.7794 C.3     1  UNL1        0.0300
     17 N          14.9468   39.7425   32.7440 N.ar    1  UNL1       -0.2234
     18 C          13.6455   39.7438   32.8891 C.ar    1  UNL1        0.1993
     19 N          12.8145   39.2470   31.9911 N.ar    1  UNL1       -0.2171
     20 N          20.8592   38.6726   29.9729 N.pl3   1  UNL1       -0.2883
     21 C          21.0216   37.3853   29.2816 C.3     1  UNL1        0.1242
     22 C          22.4806   37.2273   28.8450 C.3     1  UNL1        0.1636
     23 O          22.8497   38.3360   28.0204 O.3     1  UNL1       -0.3501
     24 C          22.7044   39.6052   28.6634 C.3     1  UNL1        0.1636
     25 C          21.2476   39.7878   29.0973 C.3     1  UNL1        0.1242
     26 S          12.2025   38.0398   29.6542 S.3     1  UNL1       -0.0825
     27 C          13.3962   37.6154   28.3615 C.3     1  UNL1        0.1728
     28 C          12.6595   37.1907   27.1173 C.2     1  UNL1        0.3285
     29 O          12.2643   36.0541   27.0076 O.2     1  UNL1       -0.2491
     30 O          12.4423   38.0749   26.1311 O.3     1  UNL1       -0.4479
     31 C          11.0590   38.3749   25.8075 C.3     1  UNL1        0.2085
     32 C          10.8132   38.1073   24.3213 C.3     1  UNL1        0.0474
     33 C          10.1182   39.3171   23.6934 C.3     1  UNL1        0.0038
     34 C          10.0151   41.7012   24.4337 C.3     1  UNL1        0.0000
     35 C          10.9420   40.5771   23.9665 C.3     1  UNL1        0.0001
@<TRIPOS>BOND
     1    34    35    1
     2    35    33    1
     3    33    32    1
     4    32    31    1
     5    31    30    1
     6    30    28    1
     7    28    29    2
     8    28    27    1
     9    27    26    1
    10    26     1    1
    11     1    19   ar
    12     1     2   ar
    13     2    10   ar
    14     2     3   ar
    15     3     4   ar
    16     3    17   ar
    17     4     9   ar
    18     4     5   ar
    19     5    14    1
    20     5     6   ar
    21     6     7   ar
    22     6    11    1
    23     7     8   ar
    24     7    20    1
    25     8     9   ar
    26     9    10   ar
    27    20    25    1
    28    20    21    1
    29    21    22    1
    30    22    23    1
    31    23    24    1
    32    24    25    1
    33    11    12    1
    34    12    13    1
    35    13    14    1
    36    13    15    1
    37    13    16    1
    38    17    18   ar
    39    18    19   ar
@<TRIPOS>MOLECULE
ZINC02180957
 41 46 0 0 0
SMALL
GASTEIGER

@<TRIPOS>ATOM
      1 C          25.3999   36.7403   31.0724 C.ar    1  UNL1        0.2023
      2 N          24.7215   36.3282   32.1176 N.ar    1  UNL1       -0.1217
      3 N          25.0217   35.1065   32.3802 N.ar    1  UNL1       -0.1321
      4 C          25.9031   34.6677   31.5256 C.ar    1  UNL1        0.1519
      5 N          26.1810   35.6941   30.6646 N.ar    1  UNL1       -0.2719
      6 C          27.0774   35.6762   29.5862 C.ar    1  UNL1        0.0669
      7 C          28.3169   36.2911   29.7017 C.ar    1  UNL1        0.0176
      8 C          29.1977   36.2716   28.6383 C.ar    1  UNL1        0.0014
      9 C          28.8465   35.6397   27.4592 C.ar    1  UNL1        0.0039
     10 C          27.6130   35.0266   27.3413 C.ar    1  UNL1        0.0729
     11 C          26.7296   35.0388   28.4033 C.ar    1  UNL1        0.0215
     12 C          27.2340   34.3392   26.0548 C.3     1  UNL1        0.4186
     13 F          26.7215   33.0686   26.3383 F       1  UNL1       -0.1659
     14 F          26.2631   35.0960   25.3903 F       1  UNL1       -0.1659
     15 F          28.3655   34.2148   25.2416 F       1  UNL1       -0.1659
     16 S          25.3252   38.3406   30.3390 S.3     1  UNL1       -0.0292
     17 C          20.1488   38.6261   30.5810 C.ar    1  UNL1        0.2152
     18 C          21.3981   38.4547   29.9622 C.ar    1  UNL1        0.1917
     19 N          22.6448   38.4789   30.4427 N.ar    1  UNL1       -0.2182
     20 C          23.6971   38.2935   29.6669 C.ar    1  UNL1        0.1166
     21 C          23.4871   38.0414   28.2349 C.ar    1  UNL1        0.0417
     22 C          24.5542   37.8324   27.3610 C.ar    1  UNL1        0.0035
     23 C          24.3074   37.6020   26.0358 C.ar    1  UNL1        0.0002
     24 C          23.0065   37.5739   25.5538 C.ar    1  UNL1        0.0015
     25 C          21.9374   37.7786   26.4012 C.ar    1  UNL1        0.0193
     26 C          22.1666   38.0141   27.7496 C.ar    1  UNL1        0.0880
     27 N          21.1312   38.2255   28.6415 N.ar    1  UNL1       -0.1927
     28 N          19.7395   38.2636   28.4949 N.ar    1  UNL1       -0.0580
     29 N          19.2009   38.4981   29.6390 N.ar    1  UNL1       -0.1202
     30 C          19.9207   38.8971   32.0017 C.2     1  UNL1        0.3641
     31 O          19.2009   38.1639   32.6529 O.2     1  UNL1       -0.2430
     32 O          20.5089   39.9599   32.5886 O.3     1  UNL1       -0.4443
     33 C          20.5932   40.3162   34.9962 C.3     1  UNL1        0.0513
     34 C          19.8087   40.5667   33.7066 C.3     1  UNL1        0.2089
     35 C          26.5084   33.2879   31.4957 C.3     1  UNL1        0.0925
     36 C          27.8200   33.2985   32.2379 C.ar    1  UNL1       -0.0146
     37 C          27.8336   33.4131   33.6154 C.ar    1  UNL1       -0.0038
     38 C          29.0367   33.4229   34.2962 C.ar    1  UNL1       -0.0003
     39 C          30.2262   33.3233   33.5991 C.ar    1  UNL1       -0.0000
     40 C          30.2123   33.2033   32.2220 C.ar    1  UNL1       -0.0003
     41 C          29.0092   33.1931   31.5412 C.ar    1  UNL1       -0.0038
@<TRIPOS>BOND
     1    33    34    1
     2    34    32    1
     3    32    30    1
     4    30    31    2
     5    30    17    1
     6    17    29   ar
     7    17    18   ar
     8    18    27   ar
     9    18    19   ar
    10    19    20   ar
    11    20    21   ar
    12    20    16    1
    13    21    26   ar
    14    21    22   ar
    15    22    23   ar
    16    23    24   ar
    17    24    25   ar
    18    25    26   ar
    19    26    27   ar
    20    27    28   ar
    21    28    29   ar
    22    16     1    1
    23     1     5   ar
    24     1     2   ar
    25     2     3   ar
    26     3     4   ar
    27     4     5   ar
    28     4    35    1
    29     5     6    1
    30     6    11   ar
    31     6     7   ar
    32     7     8   ar
    33     8     9   ar
    34     9    10   ar
    35    10    11   ar
    36    10    12    1
    37    12    13    1
    38    12    14    1
    39    12    15    1
    40    35    36    1
    41    36    41   ar
    42    36    37   ar
    43    37    38   ar
    44    38    39   ar
    45    39    40   ar
    46    40    41   ar
@<TRIPOS>MOLECULE
ZINC23308135
 39 42 0 0 0
SMALL
GASTEIGER

@<TRIPOS>ATOM
      1 C          25.1466   37.7878   25.8892 C.3     1  UNL1        0.1710
      2 C          27.0348   42.3947   28.0464 C.2     1  UNL1        0.2513
      3 O          27.9409   42.3472   28.8561 O.2     1  UNL1       -0.2698
      4 N          26.8751   41.3969   27.1545 N.am    1  UNL1       -0.2645
      5 C          27.7271   40.1990   27.2013 C.3     1  UNL1        0.1549
      6 C          26.8177   38.9599   27.1915 C.3     1  UNL1        0.1278
      7 N          25.9122   39.0327   26.0370 N.4     1  UNL1        0.2843
      8 C          25.0166   40.1931   26.1346 C.3     1  UNL1        0.1278
      9 C          25.8482   41.4798   26.1048 C.3     1  UNL1        0.1549
     10 H          26.4843   39.1518   25.2010 H       1  UNL1        0.2073
     11 C          26.4408   44.7236   27.3502 C.ar    1  UNL1        0.1110
     12 C          26.1113   43.5434   28.0404 C.ar    1  UNL1        0.0771
     13 C          24.8906   43.4800   28.7217 C.ar    1  UNL1        0.0081
     14 C          24.0593   44.5855   28.6857 C.ar    1  UNL1        0.0209
     15 C          24.4525   45.7118   27.9848 C.ar    1  UNL1        0.0994
     16 N          25.6091   45.7548   27.3534 N.ar    1  UNL1       -0.2375
     17 S          27.9706   44.8338   26.4829 S.3     1  UNL1       -0.0948
     18 C          27.3650   45.2527   24.8295 C.3     1  UNL1        0.0637
     19 C          28.6805   43.1876   24.3322 C.3     1  UNL1        0.0009
     20 C          27.4671   44.0248   23.9226 C.3     1  UNL1        0.0120
     21 C          24.0025   37.7822   26.8701 C.ar    1  UNL1        0.1814
     22 C          22.7434   37.9619   26.4221 C.ar    1  UNL1        0.0842
     23 C          21.6744   37.9502   27.3526 C.ar    1  UNL1        0.2354
     24 O          20.5199   38.1056   26.9844 O.2     1  UNL1       -0.2831
     25 C          21.9837   37.7584   28.7276 C.ar    1  UNL1        0.2152
     26 C          23.2748   37.5911   29.0889 C.ar    1  UNL1        0.2193
     27 O          24.2524   37.6046   28.1722 O.2     1  UNL1       -0.4454
     28 O          20.9958   37.7431   29.6633 O.3     1  UNL1       -0.4643
     29 C          21.1214   38.6574   30.7544 C.3     1  UNL1        0.2323
     30 C          19.7559   38.9620   31.3143 C.ar    1  UNL1        0.0211
     31 C          19.6358   39.6085   32.5302 C.ar    1  UNL1       -0.0010
     32 C          18.3832   39.8918   33.0418 C.ar    1  UNL1       -0.0045
     33 C          17.2506   39.5198   32.3420 C.ar    1  UNL1       -0.0228
     34 C          17.3706   38.8689   31.1284 C.ar    1  UNL1       -0.0045
     35 C          18.6232   38.5896   30.6148 C.ar    1  UNL1       -0.0010
     36 C          15.8850   39.8243   32.9019 C.3     1  UNL1        0.0189
     37 C          15.7674   39.2343   34.3086 C.3     1  UNL1        0.0044
     38 C          15.6867   41.3400   32.9664 C.3     1  UNL1        0.0044
     39 C          14.8146   39.2078   31.9992 C.3     1  UNL1        0.0044
@<TRIPOS>UNITY_ATOM_ATTR
7 1
charge 1
@<TRIPOS>BOND
     1    19    20    1
     2    20    18    1
     3    18    17    1
     4    17    11    1
     5    11    16   ar
     6    11    12   ar
     7    12    13   ar
     8    12     2    1
     9    13    14   ar
    10    14    15   ar
    11    15    16   ar
    12     2     3    2
    13     2     4   am
    14     4     9    1
    15     4     5    1
    16     5     6    1
    17     6     7    1
    18     7     8    1
    19     7     1    1
    20     8     9    1
    21     1    21    1
    22    21    27   ar
    23    21    22   ar
    24    22    23   ar
    25    23    24    2
    26    23    25   ar
    27    25    26   ar
    28    25    28    1
    29    26    27   ar
    30    28    29    1
    31    29    30    1
    32    30    35   ar
    33    30    31   ar
    34    31    32   ar
    35    32    33   ar
    36    33    34   ar
    37    33    36    1
    38    34    35   ar
    39    36    37    1
    40    36    38    1
    41    36    39    1
    42     7    10    1
@<TRIPOS>MOLECULE
ZINC03267650
 32 34 0 0 0
SMALL
GASTEIGER

@<TRIPOS>ATOM
      1 C          21.1622   50.6109   24.2785 C.ar    1  UNL1        0.1269
      2 C          22.3738   50.4736   24.9982 C.ar    1  UNL1        0.0061
      3 N          22.3573   50.2885   26.3017 N.ar    1  UNL1       -0.2647
      4 C          21.1854   50.2298   26.9517 C.ar    1  UNL1        0.0969
      5 C          21.1417   50.0339   28.3414 C.ar    1  UNL1        0.0206
      6 C          19.9393   49.9782   28.9790 C.ar    1  UNL1        0.0016
      7 C          18.7479   50.1136   28.2713 C.ar    1  UNL1        0.0016
      8 C          18.7533   50.3048   26.9226 C.ar    1  UNL1        0.0207
      9 C          19.9745   50.3670   26.2324 C.ar    1  UNL1        0.1002
     10 N          20.0055   50.5605   24.9054 N.ar    1  UNL1       -0.2295
     11 N          21.1942   50.8054   22.9057 N.pl3   1  UNL1       -0.2935
     12 C          20.6717   49.6306   22.1952 C.3     1  UNL1        0.0921
     13 C          21.8385   48.7852   21.6806 C.3     1  UNL1        0.0215
     14 C          22.5346   49.5211   20.5340 C.3     1  UNL1        0.0018
     15 C          21.6909   47.3884   19.5427 C.3     1  UNL1        0.0000
     16 C          22.3408   48.7386   19.2336 C.3     1  UNL1        0.0001
     17 C          20.4579   52.0193   22.5287 C.3     1  UNL1        0.0921
     18 C          20.8970   52.4698   21.1341 C.3     1  UNL1        0.0215
     19 C          19.6741   52.5621   20.2192 C.3     1  UNL1        0.0018
     20 C          19.8848   51.6693   18.9947 C.3     1  UNL1        0.0001
     21 C          19.0003   50.4264   19.1117 C.3     1  UNL1        0.0000
     22 N          23.5855   50.5347   24.3261 N.pl3   1  UNL1       -0.5183
     23 S          24.6430   49.2630   24.4083 S.O2    1  UNL1       -0.0568
     24 O          25.7183   49.6819   25.2375 O.2     1  UNL1       -0.1841
     25 O          23.8669   48.1072   24.6929 O.2     1  UNL1       -0.1841
     26 C          25.3110   49.0359   22.7937 C.ar    1  UNL1        0.0894
     27 C          25.7847   50.1227   22.0827 C.ar    1  UNL1        0.0174
     28 C          26.3133   49.9444   20.8181 C.ar    1  UNL1        0.0080
     29 C          26.3585   48.6797   20.2598 C.ar    1  UNL1        0.0346
     30 C          25.8796   47.5932   20.9695 C.ar    1  UNL1        0.0080
     31 C          25.3561   47.7717   22.2361 C.ar    1  UNL1        0.0174
     32 BR         27.0755   48.4358   18.5270 Br      1  UNL1       -0.0490
@<TRIPOS>UNITY_ATOM_ATTR
22 1
charge -1
@<TRIPOS>BOND
     1    15    16    1
     2    16    14    1
     3    14    13    1
     4    13    12    1
     5    12    11    1
     6    11    17    1
     7    11     1    1
     8    17    18    1
     9    18    19    1
    10    19    20    1
    11    20    21    1
    12     1    10   ar
    13     1     2   ar
    14     2     3   ar
    15     2    22    1
    16     3     4   ar
    17     4     9   ar
    18     4     5   ar
    19     5     6   ar
    20     6     7   ar
    21     7     8   ar
    22     8     9   ar
    23     9    10   ar
    24    22    23    1
    25    23    24    2
    26    23    25    2
    27    23    26    1
    28    26    31   ar
    29    26    27   ar
    30    27    28   ar
    31    28    29   ar
    32    29    30   ar
    33    29    32    1
    34    30    31   ar
@<TRIPOS>MOLECULE
ZINC02106469
 39 43 0 0 0
SMALL
GASTEIGER

@<TRIPOS>ATOM
      1 C          20.4795   37.9781   29.8080 C.3     1  UNL1        0.1501
      2 N          22.4638   37.6108   28.3776 N.am    1  UNL1       -0.2781
      3 C          21.6069   38.4829   28.9447 C.2     1  UNL1        0.2379
      4 O          21.7431   39.6738   28.7604 O.2     1  UNL1       -0.2738
      5 H          22.3533   36.6441   28.5274 H       1  UNL1        0.1553
      6 C          24.7920   38.4113   27.9668 C.ar    1  UNL1        0.0987
      7 C          25.6856   38.8696   26.9184 C.ar    1  UNL1        0.0490
      8 C          25.1703   38.9306   25.6615 C.ar    1  UNL1        0.0399
      9 S          23.4923   38.3761   25.8793 S.2     1  UNL1       -0.0714
     10 C          23.5005   38.0750   27.5838 C.ar    1  UNL1        0.0871
     11 C          27.0837   39.2507   27.2028 C.ar    1  UNL1        0.1462
     12 C          28.1352   38.3964   27.3236 C.ar    1  UNL1        0.0407
     13 C          29.2719   39.1868   27.5904 C.ar    1  UNL1        0.0438
     14 C          28.8612   40.4688   27.6280 C.ar    1  UNL1        0.1796
     15 O          27.5380   40.5041   27.3933 O.2     1  UNL1       -0.4504
     16 C          25.2323   38.3034   29.3571 C.2     1  UNL1        0.3430
     17 O          25.4182   39.3091   30.0161 O.2     1  UNL1       -0.2448
     18 O          25.4270   37.0887   29.9106 O.3     1  UNL1       -0.4454
     19 C          24.9780   35.3562   31.5346 C.3     1  UNL1        0.0513
     20 C          24.7220   36.8069   31.1212 C.3     1  UNL1        0.2089
     21 S          20.0607   39.2300   31.0463 S.3     1  UNL1       -0.0674
     22 C          18.3046   39.0840   31.0472 C.ar    1  UNL1        0.1746
     23 N          17.7018   38.4853   30.0397 N.ar    1  UNL1       -0.2158
     24 C          16.3798   38.3619   30.0156 C.ar    1  UNL1        0.1168
     25 C          15.5644   38.8566   31.0453 C.ar    1  UNL1        0.0763
     26 C          14.1206   38.6505   30.8812 C.ar    1  UNL1       -0.0136
     27 C          13.7242   38.0001   29.7694 C.ar    1  UNL1        0.0049
     28 S          15.2189   37.6439   28.8820 S.2     1  UNL1       -0.0725
     29 C          12.3280   37.6450   29.3617 C.3     1  UNL1        0.0327
     30 C          11.4328   38.8846   29.4876 C.3     1  UNL1        0.0052
     31 C          10.8530   38.9180   30.8982 C.3     1  UNL1        0.0007
     32 C          11.8564   38.3310   31.8892 C.3     1  UNL1        0.0047
     33 C          13.1294   39.1676   31.9199 C.3     1  UNL1        0.0268
     34 C          16.2453   39.5010   32.1265 C.ar    1  UNL1        0.2642
     35 O          15.6186   39.9602   33.0660 O.2     1  UNL1       -0.2669
     36 N          17.5880   39.5875   32.0938 N.ar    1  UNL1       -0.2714
     37 C          18.2932   40.2398   33.1999 C.3     1  UNL1        0.1374
     38 C          18.7627   39.1967   34.1810 C.2     1  UNL1       -0.0016
     39 C          19.8405   39.4074   34.8953 C.2     1  UNL1       -0.0029
@<TRIPOS>BOND
     1    19    20    1
     2    20    18    1
     3    18    16    1
     4    16    17    2
     5    16     6    1
     6     6    10   ar
     7     6     7   ar
     8     7     8   ar
     9     7    11    1
    10     8     9   ar
    11     9    10   ar
    12    10     2    1
    13     2     3   am
    14     3     4    2
    15     3     1    1
    16     1    21    1
    17    21    22    1
    18    22    36   ar
    19    22    23   ar
    20    23    24   ar
    21    24    28   ar
    22    24    25   ar
    23    25    26   ar
    24    25    34   ar
    25    26    33    1
    26    26    27   ar
    27    27    28   ar
    28    27    29    1
    29    29    30    1
    30    30    31    1
    31    31    32    1
    32    32    33    1
    33    34    35    2
    34    34    36   ar
    35    36    37    1
    36    37    38    1
    37    38    39    2
    38    11    15   ar
    39    11    12   ar
    40    12    13   ar
    41    13    14   ar
    42    14    15   ar
    43     2     5    1
@<TRIPOS>MOLECULE
ZINC02149327
 41 45 0 0 0
SMALL
GASTEIGER

@<TRIPOS>ATOM
      1 C          26.6674   43.5267   24.3801 C.2     1  UNL1        0.0654
      2 C          26.3015   43.0654   23.1465 C.2     1  UNL1        0.0918
      3 C          25.4025   41.8524   23.0786 C.3     1  UNL1        0.1456
      4 N          24.9788   41.2468   24.3723 N.ar    1  UNL1       -0.2688
      5 C          24.1888   40.1751   24.5178 C.ar    1  UNL1        0.2688
      6 O          23.7389   39.5917   23.5488 O.2     1  UNL1       -0.2664
      7 C          23.8811   39.7250   25.8822 C.ar    1  UNL1        0.0885
      8 C          23.1162   38.6809   26.2950 C.2     1  UNL1        0.0145
      9 S          24.7857   40.9222   26.8507 S.2     1  UNL1       -0.0455
     10 C          25.4610   41.8693   25.5006 C.ar    1  UNL1        0.1779
     11 N          26.2398   42.9214   25.4808 N.2     1  UNL1       -0.2267
     12 C          26.1156   40.7909   22.2815 C.ar    1  UNL1        0.0368
     13 C          25.6766   40.4647   20.9878 C.ar    1  UNL1        0.0010
     14 C          24.5720   41.1127   20.4080 C.ar    1  UNL1       -0.0001
     15 C          24.1744   40.7718   19.1519 C.ar    1  UNL1       -0.0000
     16 C          24.8495   39.7914   18.4270 C.ar    1  UNL1       -0.0000
     17 C          25.9197   39.1393   18.9581 C.ar    1  UNL1       -0.0000
     18 C          26.3599   39.4640   20.2524 C.ar    1  UNL1       -0.0000
     19 C          27.4651   38.8152   20.8305 C.ar    1  UNL1        0.0031
     20 C          27.8654   39.1538   22.0852 C.ar    1  UNL1        0.0366
     21 C          27.1929   40.1408   22.8126 C.ar    1  UNL1        0.1368
     22 O          27.6170   40.4575   24.0641 O.3     1  UNL1       -0.4717
     23 C          28.1197   39.3889   24.8687 C.3     1  UNL1        0.2525
     24 C          22.7989   38.5217   27.7188 C.ar    1  UNL1        0.0377
     25 C          21.6153   39.0573   28.2407 C.ar    1  UNL1        0.0399
     26 C          21.3217   38.8978   29.5815 C.ar    1  UNL1        0.1389
     27 C          22.2029   38.2183   30.4146 C.ar    1  UNL1        0.0400
     28 C          23.3760   37.6913   29.9102 C.ar    1  UNL1        0.0400
     29 C          23.6836   37.8362   28.5673 C.ar    1  UNL1        0.1389
     30 O          24.8371   37.3175   28.0730 O.3     1  UNL1       -0.4714
     31 C          25.8178   36.8948   29.0225 C.3     1  UNL1        0.2525
     32 O          20.1698   39.4126   30.0889 O.3     1  UNL1       -0.4714
     33 C          19.8057   39.0089   31.4106 C.3     1  UNL1        0.2525
     34 C          26.7489   43.6996   21.9760 C.2     1  UNL1        0.3404
     35 O          26.0449   44.5263   21.4240 O.2     1  UNL1       -0.2451
     36 O          27.9599   43.3928   21.4623 O.3     1  UNL1       -0.4456
     37 C          28.1800   43.7091   20.0862 C.3     1  UNL1        0.2089
     38 C          28.3363   42.4156   19.2842 C.3     1  UNL1        0.0513
     39 C          27.5628   44.7337   24.4909 C.3     1  UNL1        0.0458
     40 C          29.1794   45.4199   26.2680 C.3     1  UNL1        0.0004
     41 C          27.7092   45.1268   25.9622 C.3     1  UNL1        0.0063
@<TRIPOS>BOND
     1    40    41    1
     2    41    39    1
     3    39     1    1
     4     1    11    1
     5     1     2    2
     6     2     3    1
     7     2    34    1
     8     3     4    1
     9     3    12    1
    10     4    10   ar
    11     4     5   ar
    12     5     6    2
    13     5     7   ar
    14     7     8    2
    15     7     9   ar
    16     8    24    1
    17    24    29   ar
    18    24    25   ar
    19    25    26   ar
    20    26    27   ar
    21    26    32    1
    22    27    28   ar
    23    28    29   ar
    24    29    30    1
    25    30    31    1
    26    32    33    1
    27     9    10   ar
    28    10    11    2
    29    12    21   ar
    30    12    13   ar
    31    13    18   ar
    32    13    14   ar
    33    14    15   ar
    34    15    16   ar
    35    16    17   ar
    36    17    18   ar
    37    18    19   ar
    38    19    20   ar
    39    20    21   ar
    40    21    22    1
    41    22    23    1
    42    34    35    2
    43    34    36    1
    44    36    37    1
    45    37    38    1
@<TRIPOS>MOLECULE
ZINC09629079
 35 38 0 0 0
SMALL
GASTEIGER

@<TRIPOS>ATOM
      1 N          23.6132   37.7860   29.9949 N.am    1  UNL1       -0.1313
      2 C          24.5191   36.8620   30.3718 C.2     1  UNL1        0.2735
      3 O          24.3036   36.1578   31.3422 O.2     1  UNL1       -0.2677
      4 C          24.2893   40.7494   24.4760 C.ar    1  UNL1        0.1393
      5 C          23.7100   39.5193   24.1792 C.ar    1  UNL1        0.0385
      6 C          23.4216   38.6143   25.1524 C.ar    1  UNL1        0.0228
      7 C          23.7020   38.8929   26.5102 C.ar    1  UNL1        0.0895
      8 C          24.2901   40.1493   26.7823 C.ar    1  UNL1        0.0528
      9 C          24.5796   41.0600   25.7966 C.ar    1  UNL1        0.0450
     10 S          24.4677   40.1097   28.5495 S.2     1  UNL1       -0.0494
     11 C          23.7834   38.4790   28.8074 C.ar    1  UNL1        0.1891
     12 N          23.4778   38.1071   27.5863 N.ar    1  UNL1       -0.2223
     13 C          23.7311   41.5968   22.3253 C.3     1  UNL1        0.2525
     14 O          24.5670   41.6365   23.4836 O.3     1  UNL1       -0.4714
     15 C          25.7191   36.7101   29.6413 C.2     1  UNL1        0.0606
     16 C          26.4013   35.5378   29.6929 C.2     1  UNL1        0.0112
     17 C          27.6034   35.3857   28.9611 C.ar    1  UNL1        0.0296
     18 C          27.7800   35.1984   27.5949 C.ar    1  UNL1        0.0070
     19 C          29.0709   35.0844   27.1436 C.ar    1  UNL1        0.0075
     20 C          30.0950   35.1586   28.0344 C.ar    1  UNL1        0.0354
     21 S          29.2873   35.3922   29.5504 S.2     1  UNL1       -0.0864
     22 N          22.4993   38.0455   30.8040 N.2     1  UNL1       -0.1679
     23 C          21.3914   38.4617   30.2696 C.2     1  UNL1        0.1185
     24 C          20.2806   38.9081   31.1293 C.ar    1  UNL1        0.0269
     25 C          18.9639   38.5748   30.8014 C.ar    1  UNL1        0.0419
     26 C          17.9242   38.9904   31.6135 C.ar    1  UNL1        0.1755
     27 C          18.1874   39.7498   32.7495 C.ar    1  UNL1        0.2061
     28 C          19.4972   40.0877   33.0759 C.ar    1  UNL1        0.1755
     29 C          20.5418   39.6703   32.2710 C.ar    1  UNL1        0.0419
     30 O          19.7505   40.8297   34.1872 O.3     1  UNL1       -0.4683
     31 C          20.1991   40.1271   35.3479 C.3     1  UNL1        0.2526
     32 O          17.1623   40.1621   33.5427 O.3     1  UNL1       -0.4654
     33 C          16.4804   41.3560   33.1534 C.3     1  UNL1        0.2528
     34 O          16.6428   38.6617   31.2981 O.3     1  UNL1       -0.4683
     35 C          16.2623   38.7777   29.9256 C.3     1  UNL1        0.2526
@<TRIPOS>BOND
     1    13    14    1
     2    14     4    1
     3     4     9   ar
     4     4     5   ar
     5     5     6   ar
     6     6     7   ar
     7     7    12   ar
     8     7     8   ar
     9     8     9   ar
    10     8    10   ar
    11    10    11   ar
    12    11    12   ar
    13    11     1    1
    14     1     2   am
    15     1    22    1
    16     2     3    2
    17     2    15    1
    18    15    16    2
    19    16    17    1
    20    17    21   ar
    21    17    18   ar
    22    18    19   ar
    23    19    20   ar
    24    20    21   ar
    25    22    23    2
    26    23    24    1
    27    24    29   ar
    28    24    25   ar
    29    25    26   ar
    30    26    27   ar
    31    26    34    1
    32    27    28   ar
    33    27    32    1
    34    28    29   ar
    35    28    30    1
    36    30    31    1
    37    32    33    1
    38    34    35    1
@<TRIPOS>MOLECULE
ZINC23462185
 35 38 0 0 0
SMALL
GASTEIGER

@<TRIPOS>ATOM
      1 C          26.1442   36.8625   31.1638 C.ar    1  UNL1        0.1238
      2 C          26.4355   37.2179   29.8552 C.ar    1  UNL1        0.0215
      3 C          25.4553   37.7437   29.0389 C.ar    1  UNL1        0.0201
      4 C          24.1699   37.9183   29.5286 C.ar    1  UNL1        0.0792
      5 C          23.8690   37.5598   30.8529 C.ar    1  UNL1        0.1005
      6 C          24.8718   37.0238   31.6649 C.ar    1  UNL1        0.0405
      7 N          22.5544   37.8377   31.0541 N.ar    1  UNL1       -0.2211
      8 C          22.0369   38.3352   29.9577 C.ar    1  UNL1        0.1715
      9 N          22.9930   38.4062   28.9843 N.ar    1  UNL1       -0.3084
     10 C          22.8080   38.9050   27.6193 C.3     1  UNL1        0.0874
     11 C          23.4350   37.9229   26.6083 C.3     1  UNL1        0.0226
     12 C          24.0388   38.8392   25.5141 C.3     1  UNL1        0.0020
     13 C          24.5906   40.0327   26.3329 C.3     1  UNL1        0.0020
     14 C          23.5420   40.2460   27.4441 C.3     1  UNL1        0.0226
     15 S          27.4100   36.1931   32.1906 S.O2    1  UNL1        0.0634
     16 O          26.9235   36.2505   33.5246 O.2     1  UNL1       -0.1528
     17 O          28.6248   36.8152   31.7954 O.2     1  UNL1       -0.1528
     18 N          27.5535   34.5884   31.8078 N.3     1  UNL1       -0.1540
     19 C          28.6048   33.7785   32.4283 C.3     1  UNL1        0.1149
     20 C          26.6293   33.9786   30.8485 C.3     1  UNL1        0.0959
     21 C          27.0129   32.5135   30.6313 C.3     1  UNL1        0.0191
     22 C          27.0089   33.5555   28.3605 C.3     1  UNL1        0.0000
     23 C          27.1787   32.2463   29.1340 C.3     1  UNL1        0.0015
     24 S          20.3589   38.8382   29.7677 S.3     1  UNL1       -0.0725
     25 C          20.0296   39.4697   31.4317 C.3     1  UNL1        0.0913
     26 C          18.5569   39.3556   31.7301 C.ar    1  UNL1       -0.0107
     27 C          18.0854   39.6417   32.9993 C.ar    1  UNL1       -0.0034
     28 C          16.7349   39.5394   33.2817 C.ar    1  UNL1       -0.0001
     29 C          15.8487   39.1511   32.2983 C.ar    1  UNL1        0.0064
     30 C          16.3176   38.8610   31.0156 C.ar    1  UNL1        0.0754
     31 C          17.6813   38.9717   30.7359 C.ar    1  UNL1        0.0030
     32 C          15.3745   38.4451   29.9574 C.2     1  UNL1        0.3413
     33 O          15.7750   37.8110   29.0019 O.2     1  UNL1       -0.2449
     34 O          14.0703   38.7691   30.0520 O.3     1  UNL1       -0.4413
     35 C          13.1081   37.7199   29.7663 C.3     1  UNL1        0.2560
@<TRIPOS>BOND
     1    22    23    1
     2    23    21    1
     3    21    20    1
     4    20    18    1
     5    18    19    1
     6    18    15    1
     7    15    16    2
     8    15    17    2
     9    15     1    1
    10     1     6   ar
    11     1     2   ar
    12     2     3   ar
    13     3     4   ar
    14     4     9   ar
    15     4     5   ar
    16     5     6   ar
    17     5     7   ar
    18     7     8   ar
    19     8     9   ar
    20     8    24    1
    21     9    10    1
    22    10    14    1
    23    10    11    1
    24    11    12    1
    25    12    13    1
    26    13    14    1
    27    24    25    1
    28    25    26    1
    29    26    31   ar
    30    26    27   ar
    31    27    28   ar
    32    28    29   ar
    33    29    30   ar
    34    30    31   ar
    35    30    32    1
    36    32    33    2
    37    32    34    1
    38    34    35    1
@<TRIPOS>MOLECULE
ZINC06015547
 45 50 0 0 0
SMALL
GASTEIGER

@<TRIPOS>ATOM
      1 C          27.2859   36.3687   27.0321 C.3     1  UNL1        0.0478
      2 C          26.4080   37.5390   26.6709 C.2     1  UNL1        0.0477
      3 C          25.8617   38.2885   27.6422 C.3     1  UNL1        0.1430
      4 C          24.9786   39.4573   27.3227 C.3     1  UNL1        0.0645
      5 C          25.1526   39.8921   25.8893 C.2     1  UNL1        0.0307
      6 C          25.7335   39.0740   24.9861 C.2     1  UNL1        0.0576
      7 N          26.1726   37.8311   25.3563 N.2     1  UNL1       -0.2579
      8 C          25.9129   39.5026   23.5509 C.3     1  UNL1        0.0503
      9 C          24.7897   40.4620   23.1555 C.3     1  UNL1        0.0360
     10 C          24.8179   41.6635   24.1061 C.3     1  UNL1        0.0736
     11 C          24.6949   41.1697   25.5219 C.2     1  UNL1        0.1709
     12 O          24.1905   41.8875   26.3625 O.2     1  UNL1       -0.2916
     13 C          24.9972   40.9281   21.7373 C.ar    1  UNL1       -0.0185
     14 C          25.2581   40.0070   20.7399 C.ar    1  UNL1       -0.0009
     15 C          25.4492   40.4294   19.4375 C.ar    1  UNL1        0.0397
     16 C          25.3790   41.7785   19.1294 C.ar    1  UNL1        0.1724
     17 C          25.1159   42.7055   20.1333 C.ar    1  UNL1        0.1721
     18 C          24.9206   42.2751   21.4359 C.ar    1  UNL1        0.0358
     19 O          25.0461   44.0307   19.8359 O.3     1  UNL1       -0.4684
     20 C          26.1855   44.8295   20.1610 C.3     1  UNL1        0.2526
     21 O          25.5671   42.1959   17.8489 O.3     1  UNL1       -0.4684
     22 C          24.9838   41.4003   16.8149 C.3     1  UNL1        0.2526
     23 C          23.5425   39.0597   27.5481 C.ar    1  UNL1       -0.0144
     24 C          22.9152   38.2040   26.6614 C.ar    1  UNL1       -0.0037
     25 C          21.5981   37.8369   26.8655 C.ar    1  UNL1        0.0028
     26 C          20.9050   38.3249   27.9565 C.ar    1  UNL1        0.0369
     27 C          21.5318   39.1839   28.8473 C.ar    1  UNL1        0.1387
     28 C          22.8521   39.5552   28.6370 C.ar    1  UNL1        0.0330
     29 O          20.8522   39.6653   29.9214 O.3     1  UNL1       -0.4707
     30 C          19.8263   38.8329   30.4660 C.3     1  UNL1        0.2320
     31 C          19.6330   39.1629   31.9237 C.ar    1  UNL1        0.0212
     32 C          20.7307   39.3926   32.7318 C.ar    1  UNL1       -0.0007
     33 C          20.5534   39.6948   34.0690 C.ar    1  UNL1       -0.0002
     34 C          19.2784   39.7676   34.5981 C.ar    1  UNL1       -0.0000
     35 C          18.1808   39.5327   33.7912 C.ar    1  UNL1       -0.0002
     36 C          18.3579   39.2357   32.4528 C.ar    1  UNL1       -0.0007
     37 C          26.1278   37.9702   28.9946 C.2     1  UNL1        0.3223
     38 O          26.9424   38.6194   29.6234 O.2     1  UNL1       -0.2497
     39 O          25.4782   36.9464   29.5872 O.3     1  UNL1       -0.4520
     40 C          26.0414   36.4340   30.7964 C.3     1  UNL1        0.1688
     41 C          26.4025   34.9595   30.6061 C.3     1  UNL1        0.0436
     42 C          27.0055   34.4108   31.9009 C.3     1  UNL1        0.0037
     43 C          25.9867   34.5441   33.0345 C.3     1  UNL1        0.0002
     44 C          25.6255   36.0185   33.2248 C.3     1  UNL1        0.0037
     45 C          25.0225   36.5672   31.9301 C.3     1  UNL1        0.0436
@<TRIPOS>BOND
     1     1     2    1
     2     2     7    2
     3     2     3    1
     4     3     4    1
     5     3    37    1
     6     4     5    1
     7     4    23    1
     8     5    11    1
     9     5     6    2
    10     6     8    1
    11     6     7    1
    12     8     9    1
    13     9    10    1
    14     9    13    1
    15    10    11    1
    16    11    12    2
    17    13    18   ar
    18    13    14   ar
    19    14    15   ar
    20    15    16   ar
    21    16    17   ar
    22    16    21    1
    23    17    18   ar
    24    17    19    1
    25    19    20    1
    26    21    22    1
    27    23    28   ar
    28    23    24   ar
    29    24    25   ar
    30    25    26   ar
    31    26    27   ar
    32    27    28   ar
    33    27    29    1
    34    29    30    1
    35    30    31    1
    36    31    36   ar
    37    31    32   ar
    38    32    33   ar
    39    33    34   ar
    40    34    35   ar
    41    35    36   ar
    42    37    38    2
    43    37    39    1
    44    39    40    1
    45    40    45    1
    46    40    41    1
    47    41    42    1
    48    42    43    1
    49    43    44    1
    50    44    45    1
@<TRIPOS>MOLECULE
ZINC10934579
 35 38 0 0 0
SMALL
GASTEIGER

@<TRIPOS>ATOM
      1 C          22.1790   39.3274   28.5923 C.2     1  UNL1        0.3400
      2 O          21.8144   38.4745   27.8054 O.2     1  UNL1       -0.2449
      3 C          23.3592   40.1411   28.2951 C.ar    1  UNL1        0.0550
      4 C          23.2950   41.6027   28.3048 C.ar    1  UNL1       -0.0153
      5 C          24.4488   42.2271   28.0094 C.ar    1  UNL1        0.0017
      6 S          25.6134   40.9164   27.7257 S.2     1  UNL1       -0.1163
      7 C          24.5795   39.5554   27.9977 C.ar    1  UNL1       -0.0856
      8 C          24.3030   43.7246   28.0372 C.3     1  UNL1        0.0329
      9 C          22.9933   43.9736   28.8174 C.3     1  UNL1        0.0099
     10 C          22.2232   42.6622   28.5648 C.3     1  UNL1        0.0271
     11 N          24.8937   38.2088   27.9287 N.am    1  UNL1       -0.6030
     12 C          25.8761   37.7055   28.7020 C.2     1  UNL1        0.1167
     13 O          27.0398   37.9515   28.4442 O.2     1  UNL1       -0.3098
     14 C          25.5430   36.8621   29.8537 C.ar    1  UNL1        0.1609
     15 C          24.6843   37.1872   30.8649 C.ar    1  UNL1        0.0420
     16 C          24.6665   36.0947   31.7460 C.ar    1  UNL1        0.0438
     17 C          25.5043   35.1625   31.2406 C.ar    1  UNL1        0.1797
     18 O          26.0263   35.6264   30.0977 O.2     1  UNL1       -0.4491
     19 O          21.4959   39.5234   29.7388 O.3     1  UNL1       -0.4353
     20 C          20.8388   38.3667   30.3206 C.3     1  UNL1        0.2933
     21 N          18.8708   38.8795   31.7287 N.am    1  UNL1       -0.2545
     22 C          19.3709   38.6587   30.4968 C.2     1  UNL1        0.2740
     23 O          18.6394   38.6948   29.5299 O.2     1  UNL1       -0.2705
     24 C          15.4378   41.4306   34.1531 C.3     1  UNL1        0.0311
     25 C          15.8382   40.4846   33.0505 C.ar    1  UNL1       -0.0209
     26 C          14.8797   39.9822   32.1895 C.ar    1  UNL1       -0.0084
     27 C          15.2432   39.1148   31.1758 C.ar    1  UNL1       -0.0209
     28 C          16.5654   38.7474   31.0204 C.ar    1  UNL1        0.0106
     29 C          17.5303   39.2497   31.8836 C.ar    1  UNL1        0.0533
     30 C          17.1611   40.1159   32.9044 C.ar    1  UNL1        0.0106
     31 C          14.1955   38.5700   30.2396 C.3     1  UNL1        0.0311
     32 C          19.7306   38.7320   32.9056 C.3     1  UNL1        0.1145
     33 C          20.5336   40.0173   33.1149 C.3     1  UNL1        0.1272
     34 C          20.3498   40.4913   34.4963 C.1     1  UNL1        0.0750
     35 N          20.2080   40.8571   35.5624 N.1     1  UNL1       -0.1958
@<TRIPOS>UNITY_ATOM_ATTR
11 1
charge -1
@<TRIPOS>BOND
     1    24    25    1
     2    25    30   ar
     3    25    26   ar
     4    26    27   ar
     5    27    28   ar
     6    27    31    1
     7    28    29   ar
     8    29    30   ar
     9    29    21    1
    10    21    32    1
    11    21    22   am
    12    32    33    1
    13    33    34    1
    14    34    35    3
    15    22    23    2
    16    22    20    1
    17    20    19    1
    18    19     1    1
    19     1     2    2
    20     1     3    1
    21     3     7   ar
    22     3     4   ar
    23     4    10    1
    24     4     5   ar
    25     5     6   ar
    26     5     8    1
    27     6     7   ar
    28     7    11    1
    29    11    12    1
    30    12    13    2
    31    12    14    1
    32    14    18   ar
    33    14    15   ar
    34    15    16   ar
    35    16    17   ar
    36    17    18   ar
    37     8     9    1
    38     9    10    1
@<TRIPOS>MOLECULE
ZINC14952277
 42 46 0 0 0
SMALL
GASTEIGER

@<TRIPOS>ATOM
      1 N          26.6681   36.6099   26.4735 N.3     1  UNL1       -0.1493
      2 S          27.2737   35.1248   26.0613 S.O2    1  UNL1        0.0636
      3 O          28.6589   35.3085   25.8029 O.2     1  UNL1       -0.1528
      4 O          26.3850   34.5772   25.0971 O.2     1  UNL1       -0.1528
      5 C          27.1595   34.1006   27.4904 C.ar    1  UNL1        0.1222
      6 C          27.1104   34.6597   28.7308 C.ar    1  UNL1        0.0199
      7 C          27.0200   33.8658   29.8718 C.ar    1  UNL1        0.0014
      8 C          26.9779   32.5077   29.7789 C.ar    1  UNL1        0.0013
      9 C          27.0201   31.8962   28.5167 C.ar    1  UNL1        0.0146
     10 C          27.1183   32.7023   27.3558 C.ar    1  UNL1        0.0198
     11 C          27.1675   32.0908   26.0911 C.ar    1  UNL1        0.0014
     12 C          27.1264   30.7338   25.9899 C.ar    1  UNL1        0.0013
     13 C          27.0358   29.9310   27.1233 C.ar    1  UNL1        0.0145
     14 C          26.9852   30.4912   28.3817 C.ar    1  UNL1        0.0479
     15 N          26.8947   29.6787   29.5099 N.pl3   1  UNL1       -0.3041
     16 C          28.0385   28.7605   29.5904 C.3     1  UNL1        0.1122
     17 C          25.6247   28.9406   29.5264 C.3     1  UNL1        0.1122
     18 C          25.2634   36.9283   26.2054 C.3     1  UNL1        0.1175
     19 C          24.5890   37.3888   27.4992 C.3     1  UNL1        0.1103
     20 N          23.8799   38.6480   27.2587 N.pl3   1  UNL1       -0.3009
     21 C          24.5034   39.8615   27.5346 C.ar    1  UNL1        0.0482
     22 C          24.4591   40.8929   26.6010 C.ar    1  UNL1        0.0152
     23 C          25.0706   42.0958   26.8727 C.ar    1  UNL1        0.0115
     24 C          25.7454   42.2775   28.0835 C.ar    1  UNL1        0.0685
     25 C          25.7925   41.2375   29.0167 C.ar    1  UNL1        0.0115
     26 C          25.1747   40.0387   28.7408 C.ar    1  UNL1        0.0152
     27 C          26.3865   43.5260   28.3675 C.1     1  UNL1        0.1004
     28 N          26.8951   44.5166   28.5929 N.1     1  UNL1       -0.1908
     29 C          22.5146   38.6301   26.7280 C.3     1  UNL1        0.1368
     30 C          21.2822   40.7262   28.7093 C.3     1  UNL1        0.1318
     31 N          21.0124   39.2863   28.7070 N.ar    1  UNL1       -0.3089
     32 C          20.1918   38.6235   29.5502 C.ar    1  UNL1        0.1784
     33 N          20.2129   37.3551   29.2438 N.ar    1  UNL1       -0.2226
     34 C          21.0355   37.1655   28.2015 C.ar    1  UNL1        0.1150
     35 C          21.5434   38.3618   27.8486 C.ar    1  UNL1        0.0778
     36 C          27.5369   37.6054   27.1064 C.3     1  UNL1        0.1221
     37 C          27.6815   38.7973   26.1958 C.ar    1  UNL1       -0.0045
     38 C          28.3134   39.9404   26.6486 C.ar    1  UNL1       -0.0029
     39 C          28.4507   41.0319   25.8116 C.ar    1  UNL1       -0.0003
     40 C          27.9464   40.9844   24.5253 C.ar    1  UNL1       -0.0000
     41 C          27.3097   39.8433   24.0744 C.ar    1  UNL1       -0.0003
     42 C          27.1773   38.7498   24.9095 C.ar    1  UNL1       -0.0029
@<TRIPOS>BOND
     1    30    31    1
     2    31    35   ar
     3    31    32   ar
     4    32    33   ar
     5    33    34   ar
     6    34    35   ar
     7    35    29    1
     8    29    20    1
     9    20    19    1
    10    20    21    1
    11    19    18    1
    12    18     1    1
    13     1    36    1
    14     1     2    1
    15    36    37    1
    16    37    42   ar
    17    37    38   ar
    18    38    39   ar
    19    39    40   ar
    20    40    41   ar
    21    41    42   ar
    22     2     3    2
    23     2     4    2
    24     2     5    1
    25     5    10   ar
    26     5     6   ar
    27     6     7   ar
    28     7     8   ar
    29     8     9   ar
    30     9    14   ar
    31     9    10   ar
    32    10    11   ar
    33    11    12   ar
    34    12    13   ar
    35    13    14   ar
    36    14    15    1
    37    15    16    1
    38    15    17    1
    39    21    26   ar
    40    21    22   ar
    41    22    23   ar
    42    23    24   ar
    43    24    25   ar
    44    24    27    1
    45    25    26   ar
    46    27    28    3
@<TRIPOS>MOLECULE
ZINC02078997
 39 44 0 0 0
SMALL
GASTEIGER

@<TRIPOS>ATOM
      1 C          23.7966   54.5701   27.1451 C.ar    1  UNL1       -0.0003
      2 C          24.7680   53.5863   27.1205 C.ar    1  UNL1       -0.0003
      3 C          24.4593   52.2834   26.7621 C.ar    1  UNL1       -0.0042
      4 C          23.1634   51.9742   26.4207 C.ar    1  UNL1       -0.0216
      5 C          22.2119   52.9886   26.4023 C.ar    1  UNL1       -0.0216
      6 C          22.4898   54.2626   26.7775 C.ar    1  UNL1       -0.0042
      7 C          20.8581   52.5170   25.8169 C.3     1  UNL1        0.0530
      8 C          20.5178   51.4316   26.8209 C.ar    1  UNL1       -0.0216
      9 C          19.3323   51.4120   27.5133 C.ar    1  UNL1       -0.0042
     10 C          19.1388   50.4427   28.4862 C.ar    1  UNL1       -0.0003
     11 C          20.1170   49.5044   28.7596 C.ar    1  UNL1       -0.0003
     12 C          21.3052   49.5072   28.0362 C.ar    1  UNL1       -0.0042
     13 C          21.4721   50.4516   27.0729 C.ar    1  UNL1       -0.0216
     14 C          22.7217   50.5341   26.1507 C.3     1  UNL1        0.0530
     15 C          21.9331   50.4716   24.8407 C.3     1  UNL1        0.0944
     16 C          21.4276   51.9118   24.5640 C.3     1  UNL1        0.0944
     17 C          20.8194   51.7004   23.2425 C.2     1  UNL1        0.2320
     18 O          19.8271   52.2241   22.7836 O.2     1  UNL1       -0.2744
     19 N          21.7134   50.7735   22.6112 N.am    1  UNL1       -0.2299
     20 C          22.5310   50.1457   23.5193 C.2     1  UNL1        0.2320
     21 O          23.5167   49.4770   23.2940 O.2     1  UNL1       -0.2744
     22 C          21.7174   50.4723   21.1776 C.3     1  UNL1        0.1009
     23 C          20.8285   49.2561   20.9094 C.3     1  UNL1        0.0220
     24 C          20.9854   48.8215   19.4509 C.3     1  UNL1        0.0023
     25 C          21.8001   47.5279   19.3890 C.3     1  UNL1        0.0117
     26 C          22.9660   47.7057   18.4143 C.3     1  UNL1        0.1096
     27 C          23.8214   46.4651   18.4230 C.2     1  UNL1        0.3174
     28 O          24.1995   45.9991   19.4717 O.2     1  UNL1       -0.2501
     29 O          24.1635   45.8776   17.2655 O.3     1  UNL1       -0.4399
     30 C          25.4386   45.1840   17.2298 C.3     1  UNL1        0.2766
     31 C          25.5960   44.4901   15.9014 C.2     1  UNL1        0.2170
     32 O          26.1916   45.0376   14.9981 O.2     1  UNL1       -0.2874
     33 C          25.0271   43.1484   15.7004 C.ar    1  UNL1        0.0385
     34 C          24.2338   42.8822   14.5794 C.ar    1  UNL1        0.0035
     35 C          23.7097   41.6209   14.3942 C.ar    1  UNL1        0.0068
     36 C          23.9562   40.6217   15.3214 C.ar    1  UNL1        0.0346
     37 C          24.7358   40.8796   16.4371 C.ar    1  UNL1        0.0068
     38 C          25.2721   42.1343   16.6322 C.ar    1  UNL1        0.0035
     39 BR         23.2255   38.8969   15.0627 Br      1  UNL1       -0.0490
@<TRIPOS>BOND
     1     1     6   ar
     2     1     2   ar
     3     2     3   ar
     4     3     4   ar
     5     4    14    1
     6     4     5   ar
     7     5     6   ar
     8     5     7    1
     9     7    16    1
    10     7     8    1
    11     8    13   ar
    12     8     9   ar
    13     9    10   ar
    14    10    11   ar
    15    11    12   ar
    16    12    13   ar
    17    13    14    1
    18    14    15    1
    19    15    20    1
    20    15    16    1
    21    16    17    1
    22    17    18    2
    23    17    19   am
    24    19    20   am
    25    19    22    1
    26    20    21    2
    27    22    23    1
    28    23    24    1
    29    24    25    1
    30    25    26    1
    31    26    27    1
    32    27    28    2
    33    27    29    1
    34    29    30    1
    35    30    31    1
    36    31    32    2
    37    31    33    1
    38    33    38   ar
    39    33    34   ar
    40    34    35   ar
    41    35    36   ar
    42    36    37   ar
    43    36    39    1
    44    37    38   ar
@<TRIPOS>MOLECULE
ZINC15319560
 34 37 0 0 0
SMALL
GASTEIGER

@<TRIPOS>ATOM
      1 C          21.6823   38.8705   29.5766 C.2     1  UNL1        0.0473
      2 C          22.3687   39.8844   29.0218 C.3     1  UNL1        0.1435
      3 C          23.8282   39.7548   28.7034 C.3     1  UNL1        0.0705
      4 C          24.4437   38.5947   29.4445 C.2     1  UNL1        0.0317
      5 C          23.6695   37.6323   29.9864 C.2     1  UNL1        0.0577
      6 N          22.3065   37.6900   29.8689 N.2     1  UNL1       -0.2579
      7 C          24.2787   36.4725   30.7347 C.3     1  UNL1        0.0514
      8 C          25.6558   36.1542   30.1568 C.3     1  UNL1        0.0523
      9 C          26.5297   37.4083   30.2640 C.3     1  UNL1        0.1650
     10 C          25.8446   38.5440   29.5540 C.2     1  UNL1        0.1812
     11 O          26.5137   39.4336   29.0670 O.2     1  UNL1       -0.2910
     12 C          26.2880   35.0284   30.9341 C.ar    1  UNL1        0.0083
     13 C          26.5598   33.7622   30.5341 C.ar    1  UNL1        0.0027
     14 C          27.1512   32.8893   31.4281 C.ar    1  UNL1        0.0072
     15 C          27.4418   33.3254   32.6782 C.ar    1  UNL1        0.0351
     16 S          26.8802   35.0190   32.6182 S.2     1  UNL1       -0.0908
     17 C          23.9866   39.5348   27.2210 C.ar    1  UNL1        0.0121
     18 C          23.7431   38.4175   26.4931 C.ar    1  UNL1        0.0030
     19 C          23.9682   38.4435   25.1296 C.ar    1  UNL1        0.0072
     20 C          24.4152   39.5889   24.5588 C.ar    1  UNL1        0.0351
     21 S          24.5444   40.6776   25.9680 S.2     1  UNL1       -0.0904
     22 C          27.8693   37.1484   29.6243 C.2     1  UNL1        0.3243
     23 O          28.8848   37.3391   30.2504 O.2     1  UNL1       -0.2496
     24 O          27.9341   36.7051   28.3591 O.3     1  UNL1       -0.4482
     25 C          28.7765   35.5495   28.1079 C.3     1  UNL1        0.2086
     26 C          28.0208   34.5482   27.2318 C.3     1  UNL1        0.0513
     27 C          21.7020   41.0986   28.7355 C.2     1  UNL1        0.3225
     28 O          20.8070   41.1216   27.9115 O.2     1  UNL1       -0.2497
     29 O          22.0586   42.2315   29.3761 O.3     1  UNL1       -0.4482
     30 C          22.4573   43.3378   28.5642 C.3     1  UNL1        0.2086
     31 C          23.7154   43.9770   29.1554 C.3     1  UNL1        0.0513
     32 C          20.2151   39.0363   29.8780 C.3     1  UNL1        0.0419
     33 C          18.5280   38.6664   31.6833 C.3     1  UNL1        0.0004
     34 C          19.9961   38.9835   31.3912 C.3     1  UNL1        0.0060
@<TRIPOS>BOND
     1    33    34    1
     2    34    32    1
     3    32     1    1
     4     1     6    2
     5     1     2    1
     6     2     3    1
     7     2    27    1
     8     3     4    1
     9     3    17    1
    10     4    10    1
    11     4     5    2
    12     5     7    1
    13     5     6    1
    14     7     8    1
    15     8     9    1
    16     8    12    1
    17     9    10    1
    18     9    22    1
    19    10    11    2
    20    22    23    2
    21    22    24    1
    22    24    25    1
    23    25    26    1
    24    12    16   ar
    25    12    13   ar
    26    13    14   ar
    27    14    15   ar
    28    15    16   ar
    29    17    21   ar
    30    17    18   ar
    31    18    19   ar
    32    19    20   ar
    33    20    21   ar
    34    27    28    2
    35    27    29    1
    36    29    30    1
    37    30    31    1
@<TRIPOS>MOLECULE
ZINC06905362
 38 42 0 0 0
SMALL
GASTEIGER

@<TRIPOS>ATOM
      1 N          23.6040   38.9024   28.3040 N.ar    1  UNL1       -0.2883
      2 C          24.5378   37.9520   28.6125 C.ar    1  UNL1        0.1883
      3 N          24.0454   37.2217   29.5726 N.ar    1  UNL1       -0.1290
      4 N          22.8698   37.6371   29.8845 N.ar    1  UNL1       -0.1223
      5 C          22.5480   38.6672   29.1369 C.ar    1  UNL1        0.1935
      6 C          23.7117   39.9510   27.2866 C.3     1  UNL1        0.1412
      7 C          24.3006   41.2146   27.9171 C.3     1  UNL1        0.1668
      8 C          23.7102   43.4473   28.5589 C.3     1  UNL1        0.1742
      9 O          23.2511   42.1466   28.1854 O.3     1  UNL1       -0.3490
     10 S          21.0391   39.5752   29.1977 S.3     1  UNL1       -0.0658
     11 C          20.3940   39.0066   30.7904 C.3     1  UNL1        0.1507
     12 C          18.8917   38.9128   30.7193 C.2     1  UNL1        0.2446
     13 O          18.3587   38.4527   29.7312 O.2     1  UNL1       -0.2732
     14 N          18.1402   39.3400   31.7532 N.am    1  UNL1       -0.2356
     15 C          18.8050   39.7394   32.9110 C.ar    1  UNL1        0.0641
     16 C          20.0864   39.2583   33.1514 C.ar    1  UNL1        0.0157
     17 C          20.7767   39.6420   34.2842 C.ar    1  UNL1        0.0013
     18 C          20.1998   40.5143   35.1887 C.ar    1  UNL1        0.0006
     19 C          18.9276   41.0029   34.9599 C.ar    1  UNL1        0.0077
     20 C          18.2266   40.6201   33.8237 C.ar    1  UNL1        0.0435
     21 S          16.6048   41.2505   33.5515 S.3     1  UNL1       -0.0844
     22 C          15.9254   40.1699   32.3378 C.ar    1  UNL1        0.0435
     23 C          16.7560   39.3437   31.5857 C.ar    1  UNL1        0.0649
     24 C          16.1932   38.4961   30.6370 C.ar    1  UNL1        0.0271
     25 C          14.8248   38.4767   30.4414 C.ar    1  UNL1        0.0590
     26 C          14.0033   39.3017   31.1885 C.ar    1  UNL1        0.0120
     27 C          14.5523   40.1464   32.1353 C.ar    1  UNL1        0.0086
     28 CL         14.1352   37.4141   29.2543 Cl      1  UNL1       -0.0822
     29 C          25.8874   37.7826   27.9638 C.3     1  UNL1        0.2703
     30 O          26.5498   36.6506   28.5311 O.3     1  UNL1       -0.4672
     31 C          26.7357   35.5748   27.7217 C.ar    1  UNL1        0.1422
     32 C          27.0237   34.3335   28.2718 C.ar    1  UNL1        0.0371
     33 C          27.2084   33.2385   27.4498 C.ar    1  UNL1        0.0062
     34 C          27.1165   33.3782   26.0779 C.ar    1  UNL1        0.0371
     35 C          26.8340   34.6181   25.5230 C.ar    1  UNL1        0.1418
     36 C          26.6435   35.7176   26.3461 C.ar    1  UNL1        0.0738
     37 O          26.7448   34.7550   24.1739 O.3     1  UNL1       -0.4713
     38 C          26.4816   33.5714   23.4178 C.3     1  UNL1        0.2525
@<TRIPOS>BOND
     1     8     9    1
     2     9     7    1
     3     7     6    1
     4     6     1    1
     5     1     5   ar
     6     1     2   ar
     7     2     3   ar
     8     2    29    1
     9     3     4   ar
    10     4     5   ar
    11     5    10    1
    12    10    11    1
    13    11    12    1
    14    12    13    2
    15    12    14   am
    16    14    23    1
    17    14    15    1
    18    15    20   ar
    19    15    16   ar
    20    16    17   ar
    21    17    18   ar
    22    18    19   ar
    23    19    20   ar
    24    20    21    1
    25    21    22    1
    26    22    27   ar
    27    22    23   ar
    28    23    24   ar
    29    24    25   ar
    30    25    26   ar
    31    25    28    1
    32    26    27   ar
    33    29    30    1
    34    30    31    1
    35    31    36   ar
    36    31    32   ar
    37    32    33   ar
    38    33    34   ar
    39    34    35   ar
    40    35    36   ar
    41    35    37    1
    42    37    38    1
@<TRIPOS>MOLECULE
ZINC16170040
 35 37 0 0 0
SMALL
GASTEIGER

@<TRIPOS>ATOM
      1 C          13.0831   37.4740   27.1778 C.ar    1  UNL1        0.1112
      2 C          12.7697   36.1929   27.4909 C.ar    1  UNL1        0.0566
      3 S          11.1842   36.0322   26.6827 S.2     1  UNL1       -0.0505
      4 C          11.1002   37.6387   26.0287 C.ar    1  UNL1        0.1725
      5 N          12.2324   38.1688   26.4486 N.ar    1  UNL1       -0.2241
      6 N          10.0960   38.2180   25.2595 N.am    1  UNL1       -0.2175
      7 C           8.8517   37.7005   25.2752 C.2     1  UNL1        0.2350
      8 O           8.5834   36.7891   26.0291 O.2     1  UNL1       -0.2741
      9 C           7.7936   38.2542   24.3560 C.3     1  UNL1        0.0956
     10 C          10.3783   39.3391   24.4686 C.ar    1  UNL1        0.0519
     11 C          10.2862   40.6141   25.0108 C.ar    1  UNL1       -0.0084
     12 C          10.5713   41.7171   24.2302 C.ar    1  UNL1       -0.0073
     13 C          10.9364   41.5534   22.9064 C.ar    1  UNL1       -0.0224
     14 C          11.0230   40.2853   22.3618 C.ar    1  UNL1       -0.0073
     15 C          10.7452   39.1779   23.1390 C.ar    1  UNL1       -0.0084
     16 C          10.8409   37.7963   22.5450 C.3     1  UNL1        0.0323
     17 C          11.2412   42.7595   22.0558 C.3     1  UNL1        0.0310
     18 C           9.8818   40.7937   26.4514 C.3     1  UNL1        0.0323
     19 C          14.3739   38.0901   27.6528 C.3     1  UNL1        0.2548
     20 O          14.7320   37.5289   28.9431 O.3     1  UNL1       -0.4387
     21 C          14.5811   38.3250   30.0197 C.2     1  UNL1        0.3417
     22 O          13.4771   38.7295   30.3260 O.2     1  UNL1       -0.2449
     23 C          18.1470   38.7770   31.1298 C.ar    1  UNL1        0.0369
     24 C          17.0406   38.4131   30.3682 C.ar    1  UNL1        0.0096
     25 C          15.7560   38.7052   30.8263 C.ar    1  UNL1        0.0789
     26 C          15.5819   39.3536   32.0537 C.ar    1  UNL1        0.0465
     27 C          16.6802   39.7104   32.8117 C.ar    1  UNL1        0.1726
     28 C          17.9656   39.4264   32.3575 C.ar    1  UNL1        0.1723
     29 C          21.3790   38.7886   29.0856 C.3     1  UNL1        0.0307
     30 C          19.9885   39.0972   29.5783 C.2     1  UNL1       -0.0257
     31 C          19.5104   38.4744   30.6467 C.2     1  UNL1       -0.0014
     32 O          19.0425   39.7783   33.1046 O.3     1  UNL1       -0.4684
     33 C          19.3940   38.9114   34.1850 C.3     1  UNL1        0.2526
     34 O          16.5058   40.3410   34.0041 O.3     1  UNL1       -0.4684
     35 C          15.7775   41.5703   33.9874 C.3     1  UNL1        0.2526
@<TRIPOS>BOND
     1    29    30    1
     2    30    31    2
     3    31    23    1
     4    23    28   ar
     5    23    24   ar
     6    24    25   ar
     7    25    26   ar
     8    25    21    1
     9    26    27   ar
    10    27    28   ar
    11    27    34    1
    12    28    32    1
    13    32    33    1
    14    34    35    1
    15    21    22    2
    16    21    20    1
    17    20    19    1
    18    19     1    1
    19     1     5   ar
    20     1     2   ar
    21     2     3   ar
    22     3     4   ar
    23     4     5   ar
    24     4     6    1
    25     6    10    1
    26     6     7   am
    27    10    15   ar
    28    10    11   ar
    29    11    12   ar
    30    11    18    1
    31    12    13   ar
    32    13    14   ar
    33    13    17    1
    34    14    15   ar
    35    15    16    1
    36     7     8    2
    37     7     9    1
@<TRIPOS>MOLECULE
ZINC31844249
 32 35 0 0 0
SMALL
GASTEIGER

@<TRIPOS>ATOM
      1 C          26.1140   36.6571   29.3732 C.ar    1  UNL1        0.1602
      2 N          24.9893   36.7349   30.0583 N.ar    1  UNL1       -0.1339
      3 N          24.0531   37.6884   29.7311 N.ar    1  UNL1       -0.1339
      4 C          24.2847   38.5203   28.7337 C.ar    1  UNL1        0.1603
      5 S          25.8934   37.9718   28.1843 S.2     1  UNL1       -0.0330
      6 S          27.4686   35.5482   29.5731 S.3     1  UNL1       -0.0818
      7 C          27.4048   34.5054   28.0901 C.3     1  UNL1        0.0904
      8 C          26.8510   30.4286   29.2390 C.ar    1  UNL1       -0.0225
      9 C          26.9303   31.4142   30.2050 C.ar    1  UNL1       -0.0046
     10 C          27.1094   32.7335   29.8331 C.ar    1  UNL1       -0.0037
     11 C          27.2095   33.0671   28.4954 C.ar    1  UNL1       -0.0109
     12 C          27.1250   32.0821   27.5292 C.ar    1  UNL1       -0.0037
     13 C          26.9503   30.7623   27.9012 C.ar    1  UNL1       -0.0046
     14 C          27.0055   28.8259   31.1250 C.3     1  UNL1        0.0047
     15 C          26.6568   28.9902   29.6443 C.3     1  UNL1        0.0224
     16 C          25.1982   28.5885   29.4162 C.3     1  UNL1        0.0047
     17 S          23.2738   39.8199   28.1063 S.3     1  UNL1       -0.0766
     18 C          21.7493   38.9813   27.5930 C.3     1  UNL1        0.1518
     19 C          20.8731   38.7507   28.7972 C.ar    1  UNL1        0.2480
     20 N          20.8707   39.4519   29.9034 N.ar    1  UNL1       -0.1900
     21 C          19.9322   38.8820   30.6926 C.ar    1  UNL1        0.2034
     22 N          19.4186   37.8836   30.0224 N.ar    1  UNL1       -0.0560
     23 O          19.9477   37.7959   28.9345 O.2     1  UNL1       -0.3361
     24 C          19.5518   39.3129   32.0610 C.ar    1  UNL1        0.0408
     25 C          20.5352   39.5328   33.0235 C.ar    1  UNL1        0.0033
     26 C          20.1759   39.9330   34.2944 C.ar    1  UNL1        0.0018
     27 C          18.8420   40.1107   34.6152 C.ar    1  UNL1        0.0241
     28 C          17.8623   39.8990   33.6623 C.ar    1  UNL1        0.1430
     29 C          18.2105   39.4985   32.3880 C.ar    1  UNL1        0.0272
     30 N          16.4374   40.0967   34.0112 N.pl3   1  UNL1        0.0577
     31 O          16.0229   41.2123   34.2698 O.2     1  UNL1       -0.1261
     32 O          15.6796   39.1436   34.0397 O.2     1  UNL1       -0.1261
@<TRIPOS>BOND
     1    14    15    1
     2    15    16    1
     3    15     8    1
     4     8    13   ar
     5     8     9   ar
     6     9    10   ar
     7    10    11   ar
     8    11    12   ar
     9    11     7    1
    10    12    13   ar
    11     7     6    1
    12     6     1    1
    13     1     5   ar
    14     1     2   ar
    15     2     3   ar
    16     3     4   ar
    17     4     5   ar
    18     4    17    1
    19    17    18    1
    20    18    19    1
    21    19    23   ar
    22    19    20   ar
    23    20    21   ar
    24    21    22   ar
    25    21    24    1
    26    22    23   ar
    27    24    29   ar
    28    24    25   ar
    29    25    26   ar
    30    26    27   ar
    31    27    28   ar
    32    28    29   ar
    33    28    30    1
    34    30    31    2
    35    30    32    2
@<TRIPOS>MOLECULE
ZINC26726392
 44 47 0 0 0
SMALL
GASTEIGER

@<TRIPOS>ATOM
      1 C          23.8151   40.4322   27.3182 C.3     1  UNL1        0.1238
      2 N          23.3451   39.0965   26.9048 N.am    1  UNL1       -0.2713
      3 C          22.2150   38.6214   27.4122 C.2     1  UNL1        0.2364
      4 O          21.8005   37.5239   27.1048 O.2     1  UNL1       -0.2739
      5 C          21.4588   39.5028   28.3935 C.3     1  UNL1        0.1345
      6 S          22.2932   41.1226   28.1024 S.3     1  UNL1       -0.1122
      7 C          24.1202   38.3012   25.9495 C.3     1  UNL1        0.0942
      8 C          25.5185   38.0451   26.5150 C.3     1  UNL1        0.0219
      9 C          25.4424   36.9619   27.5928 C.3     1  UNL1        0.0064
     10 C          26.8508   36.4510   27.9029 C.3     1  UNL1        0.0264
     11 C          26.9759   35.0182   27.4528 C.ar    1  UNL1       -0.0222
     12 C          27.0813   34.0079   28.3924 C.ar    1  UNL1       -0.0042
     13 C          27.1960   32.6942   27.9872 C.ar    1  UNL1        0.0008
     14 C          27.2061   32.3853   26.6256 C.ar    1  UNL1        0.0140
     15 C          27.1052   33.4102   25.6828 C.ar    1  UNL1        0.0008
     16 C          26.9852   34.7190   26.1019 C.ar    1  UNL1       -0.0042
     17 C          27.3291   30.9808   26.1844 C.2     1  UNL1        0.0729
     18 O          26.4676   30.4861   25.4855 O.co2   1  UNL1       -0.5446
     19 O          28.3968   30.2488   26.5572 O.co2   1  UNL1       -0.5446
     20 C          21.6596   39.0266   29.8337 C.3     1  UNL1        0.1053
     21 C          20.4107   38.3319   30.3118 C.2     1  UNL1        0.2275
     22 O          20.0929   37.2617   29.8381 O.2     1  UNL1       -0.2748
     23 N          19.6467   38.9002   31.2657 N.am    1  UNL1       -0.2713
     24 C          18.4982   38.1741   31.8134 C.3     1  UNL1        0.1204
     25 C          17.2284   38.9091   31.4686 C.ar    1  UNL1       -0.0023
     26 C          16.6321   39.7346   32.4035 C.ar    1  UNL1       -0.0026
     27 C          15.4698   40.4121   32.0857 C.ar    1  UNL1       -0.0003
     28 C          14.8989   40.2570   30.8363 C.ar    1  UNL1       -0.0000
     29 C          15.4924   39.4274   29.9033 C.ar    1  UNL1       -0.0003
     30 C          16.6571   38.7533   30.2196 C.ar    1  UNL1       -0.0026
     31 C          19.9649   40.2439   31.7550 C.3     1  UNL1        0.1204
     32 C          19.9439   40.2478   33.2619 C.ar    1  UNL1       -0.0023
     33 C          19.4913   41.3616   33.9440 C.ar    1  UNL1       -0.0026
     34 C          19.4680   41.3635   35.3262 C.ar    1  UNL1       -0.0003
     35 C          19.9061   40.2550   36.0263 C.ar    1  UNL1       -0.0000
     36 C          20.3637   39.1431   35.3442 C.ar    1  UNL1       -0.0003
     37 C          20.3828   39.1396   33.9620 C.ar    1  UNL1       -0.0026
     38 C          24.2348   41.2667   26.1064 C.3     1  UNL1        0.0311
     39 C          25.1020   42.4389   26.5700 C.3     1  UNL1        0.0026
     40 C          26.0618   41.9627   27.6621 C.3     1  UNL1        0.0001
     41 C          26.4690   43.1503   28.5365 C.3     1  UNL1        0.0000
     42 C          26.1686   44.4553   27.7965 C.3     1  UNL1        0.0000
     43 C          24.8560   44.5731   29.9190 C.3     1  UNL1        0.0000
     44 C          25.2937   45.3505   28.6760 C.3     1  UNL1        0.0000
@<TRIPOS>UNITY_ATOM_ATTR
19 1
charge -1
@<TRIPOS>BOND
     1    43    44    1
     2    44    42    1
     3    42    41    1
     4    41    40    1
     5    40    39    1
     6    39    38    1
     7    38     1    1
     8     1     6    1
     9     1     2    1
    10     2     3   am
    11     2     7    1
    12     3     4    2
    13     3     5    1
    14     5     6    1
    15     5    20    1
    16    20    21    1
    17    21    22    2
    18    21    23   am
    19    23    24    1
    20    23    31    1
    21    24    25    1
    22    25    30   ar
    23    25    26   ar
    24    26    27   ar
    25    27    28   ar
    26    28    29   ar
    27    29    30   ar
    28    31    32    1
    29    32    37   ar
    30    32    33   ar
    31    33    34   ar
    32    34    35   ar
    33    35    36   ar
    34    36    37   ar
    35     7     8    1
    36     8     9    1
    37     9    10    1
    38    10    11    1
    39    11    16   ar
    40    11    12   ar
    41    12    13   ar
    42    13    14   ar
    43    14    15   ar
    44    14    17    1
    45    15    16   ar
    46    17    18   ar
    47    17    19   ar
@<TRIPOS>MOLECULE
ZINC05201954
 37 40 0 0 0
SMALL
GASTEIGER

@<TRIPOS>ATOM
      1 C          21.6706   52.8480   24.5223 C.3     1  UNL1        0.2809
      2 C          20.7214   52.0179   23.6541 C.3     1  UNL1        0.2683
      3 C          21.3844   51.7489   22.2997 C.3     1  UNL1        0.2560
      4 C          22.7255   51.0458   22.5309 C.3     1  UNL1        0.2404
      5 C          23.5973   51.9134   23.4425 C.3     1  UNL1        0.1728
      6 O          22.9090   52.1511   24.6721 O.3     1  UNL1       -0.3255
      7 C          20.7186   54.8568   23.6257 C.3     1  UNL1        0.1770
      8 O          21.9069   54.1109   23.8967 O.3     1  UNL1       -0.3250
      9 C          24.9153   51.1904   23.7269 C.3     1  UNL1        0.1010
     10 BR         24.9834   50.6737   25.6225 Br      1  UNL1       -0.0780
     11 O          22.4959   49.7581   23.1613 O.3     1  UNL1       -0.4427
     12 C          23.0918   48.6878   22.6007 C.2     1  UNL1        0.3413
     13 O          23.7487   47.9300   23.2860 O.2     1  UNL1       -0.2449
     14 C          22.9463   48.4358   21.1524 C.ar    1  UNL1        0.0756
     15 C          24.0088   48.6970   20.2849 C.ar    1  UNL1        0.0064
     16 C          23.8660   48.4598   18.9335 C.ar    1  UNL1        0.0002
     17 C          22.6731   47.9646   18.4371 C.ar    1  UNL1        0.0000
     18 C          21.6145   47.7085   19.2904 C.ar    1  UNL1        0.0002
     19 C          21.7455   47.9358   20.6447 C.ar    1  UNL1        0.0064
     20 O          20.5233   50.9004   21.4954 O.3     1  UNL1       -0.4413
     21 C          19.8925   51.4796   20.4555 C.2     1  UNL1        0.3413
     22 O          18.9636   52.2367   20.6539 O.2     1  UNL1       -0.2449
     23 C          20.3306   51.1939   19.0740 C.ar    1  UNL1        0.0756
     24 C          21.5986   51.5901   18.6442 C.ar    1  UNL1        0.0064
     25 C          22.0035   51.3151   17.3545 C.ar    1  UNL1        0.0002
     26 C          21.1518   50.6582   16.4839 C.ar    1  UNL1        0.0000
     27 C          19.8917   50.2679   16.9015 C.ar    1  UNL1        0.0002
     28 C          19.4763   50.5315   18.1903 C.ar    1  UNL1        0.0064
     29 O          20.4365   50.7563   24.3140 O.3     1  UNL1       -0.4399
     30 C          19.4183   50.7437   25.1960 C.2     1  UNL1        0.3414
     31 O          18.2957   51.0315   24.8318 O.2     1  UNL1       -0.2449
     32 C          19.6669   50.3795   26.6060 C.ar    1  UNL1        0.0756
     33 C          18.6188   50.3907   27.5283 C.ar    1  UNL1        0.0064
     34 C          18.8569   50.0445   28.8423 C.ar    1  UNL1        0.0002
     35 C          20.1331   49.6975   29.2492 C.ar    1  UNL1        0.0000
     36 C          21.1774   49.6899   28.3415 C.ar    1  UNL1        0.0002
     37 C          20.9522   50.0284   27.0233 C.ar    1  UNL1        0.0064
@<TRIPOS>BOND
     1     7     8    1
     2     8     1    1
     3     1     6    1
     4     1     2    1
     5     2     3    1
     6     2    29    1
     7     3     4    1
     8     3    20    1
     9     4     5    1
    10     4    11    1
    11     5     6    1
    12     5     9    1
    13     9    10    1
    14    11    12    1
    15    12    13    2
    16    12    14    1
    17    14    19   ar
    18    14    15   ar
    19    15    16   ar
    20    16    17   ar
    21    17    18   ar
    22    18    19   ar
    23    20    21    1
    24    21    22    2
    25    21    23    1
    26    23    28   ar
    27    23    24   ar
    28    24    25   ar
    29    25    26   ar
    30    26    27   ar
    31    27    28   ar
    32    29    30    1
    33    30    31    2
    34    30    32    1
    35    32    37   ar
    36    32    33   ar
    37    33    34   ar
    38    34    35   ar
    39    35    36   ar
    40    36    37   ar
@<TRIPOS>MOLECULE
ZINC04256069
 40 44 0 0 0
SMALL
GASTEIGER

@<TRIPOS>ATOM
      1 C          27.7986   34.2462   32.1918 C.3     1  UNL1        0.0000
      2 C          26.4101   33.6870   32.6031 C.3     1  UNL1        0.0000
      3 C          25.3543   34.5054   31.8117 C.3     1  UNL1        0.0000
      4 C          26.1936   35.2316   30.7449 C.3     1  UNL1        0.0003
      5 C          27.4557   35.6042   31.5470 C.3     1  UNL1        0.0000
      6 C          28.5151   36.2251   30.6815 C.3     1  UNL1        0.0000
      7 C          27.8919   37.1010   29.5817 C.3     1  UNL1        0.0003
      8 C          26.5090   37.5940   29.9821 C.3     1  UNL1        0.0038
      9 C          25.5440   36.4031   30.0731 C.3     1  UNL1        0.0046
     10 C          24.2770   36.8985   30.7742 C.3     1  UNL1        0.0254
     11 C          23.7236   38.0279   29.9431 C.2     1  UNL1       -0.0345
     12 C          24.4533   38.7574   29.1566 C.2     1  UNL1       -0.0455
     13 C          25.9456   38.6042   28.9880 C.3     1  UNL1        0.0151
     14 C          26.2383   38.2152   27.5444 C.3     1  UNL1        0.0074
     15 C          24.9714   38.3253   26.6970 C.3     1  UNL1        0.0444
     16 C          24.2768   39.6705   26.8750 C.3     1  UNL1        0.1763
     17 C          23.7839   39.8325   28.3176 C.3     1  UNL1        0.0654
     18 C          26.6063   39.9571   29.2770 C.3     1  UNL1        0.0040
     19 C          27.1251   36.5405   32.7239 C.3     1  UNL1        0.0000
     20 C          28.4769   33.2975   31.2127 C.3     1  UNL1        0.0000
     21 C          29.8696   32.9371   31.7338 C.3     1  UNL1        0.0000
     22 C          27.6396   32.0246   31.0729 C.3     1  UNL1        0.0000
     23 C          27.3360   31.7738   29.5945 C.3     1  UNL1        0.0000
     24 C          27.8306   32.9597   28.7639 C.3     1  UNL1        0.0000
     25 C          27.0889   34.5845   27.0167 C.3     1  UNL1        0.0000
     26 C          26.8969   33.1712   27.5704 C.3     1  UNL1        0.0000
     27 C          27.2224   32.1479   26.4805 C.3     1  UNL1        0.0000
     28 O          25.1925   40.7470   26.5424 O.3     1  UNL1       -0.4212
     29 C          24.7903   41.6229   25.6037 C.2     1  UNL1        0.5164
     30 O          24.2716   41.2219   24.5815 O.2     1  UNL1       -0.2024
     31 O          24.9630   42.9434   25.7975 O.3     1  UNL1       -0.3919
     32 C          24.7948   43.4085   27.0638 C.ar    1  UNL1        0.1741
     33 C          23.5273   43.4493   27.6264 C.ar    1  UNL1        0.0394
     34 C          23.3599   43.9169   28.9153 C.ar    1  UNL1        0.0032
     35 C          24.4527   44.3548   29.6406 C.ar    1  UNL1        0.0019
     36 C          25.7159   44.3206   29.0801 C.ar    1  UNL1        0.0272
     37 C          25.8894   43.8484   27.7933 C.ar    1  UNL1        0.1773
     38 N          27.2424   43.8115   27.1939 N.pl3   1  UNL1        0.0607
     39 O          27.9768   42.8633   27.4061 O.2     1  UNL1       -0.1260
     40 O          27.6212   44.7293   26.4884 O.2     1  UNL1       -0.1260
@<TRIPOS>BOND
     1    25    26    1
     2    26    27    1
     3    26    24    1
     4    24    23    1
     5    23    22    1
     6    22    20    1
     7    20    21    1
     8    20     1    1
     9     1     5    1
    10     1     2    1
    11     2     3    1
    12     3     4    1
    13     4     9    1
    14     4     5    1
    15     5     6    1
    16     5    19    1
    17     6     7    1
    18     7     8    1
    19     8    13    1
    20     8     9    1
    21     9    10    1
    22    10    11    1
    23    11    12    2
    24    12    17    1
    25    12    13    1
    26    13    14    1
    27    13    18    1
    28    14    15    1
    29    15    16    1
    30    16    17    1
    31    16    28    1
    32    28    29    1
    33    29    30    2
    34    29    31    1
    35    31    32    1
    36    32    37   ar
    37    32    33   ar
    38    33    34   ar
    39    34    35   ar
    40    35    36   ar
    41    36    37   ar
    42    37    38    1
    43    38    39    2
    44    38    40    2
@<TRIPOS>MOLECULE
ZINC26584846
 36 40 0 0 0
SMALL
GASTEIGER

@<TRIPOS>ATOM
      1 C          21.9958   38.1989   28.4640 C.2     1  UNL1        0.0820
      2 C          23.0719   37.5837   29.0055 C.2     1  UNL1        0.0097
      3 C          24.3561   38.2889   29.0874 C.ar    1  UNL1        0.0383
      4 C          24.6778   39.4965   28.4959 C.ar    1  UNL1        0.0969
      5 N          25.9475   39.7880   28.8207 N.ar    1  UNL1       -0.2449
      6 N          26.4746   38.7707   29.6212 N.ar    1  UNL1       -0.1689
      7 C          25.5565   37.8498   29.8080 C.ar    1  UNL1        0.1023
      8 C          25.7051   36.6035   30.5970 C.ar    1  UNL1        0.0194
      9 C          25.1768   36.5235   31.8846 C.ar    1  UNL1        0.0016
     10 C          25.3137   35.3589   32.6124 C.ar    1  UNL1        0.0000
     11 C          25.9834   34.2764   32.0710 C.ar    1  UNL1        0.0000
     12 C          26.5143   34.3519   30.7959 C.ar    1  UNL1        0.0000
     13 C          26.3787   35.5093   30.0565 C.ar    1  UNL1        0.0016
     14 C          26.6725   40.9878   28.3956 C.3     1  UNL1        0.1538
     15 C          25.7430   42.1736   28.4261 C.ar    1  UNL1        0.0021
     16 C          24.9379   42.4489   27.3365 C.ar    1  UNL1       -0.0023
     17 C          24.0817   43.5339   27.3664 C.ar    1  UNL1       -0.0003
     18 C          24.0382   44.3495   28.4816 C.ar    1  UNL1       -0.0000
     19 C          24.8470   44.0771   29.5691 C.ar    1  UNL1       -0.0003
     20 C          25.6994   42.9893   29.5413 C.ar    1  UNL1       -0.0023
     21 C          20.7572   37.5186   28.3850 C.2     1  UNL1        0.3418
     22 O          20.6787   36.4660   27.7799 O.2     1  UNL1       -0.2449
     23 O          19.6632   38.0375   28.9811 O.3     1  UNL1       -0.4387
     24 C          19.7944   38.4307   30.3486 C.3     1  UNL1        0.2544
     25 C          13.6174   39.1447   31.4892 C.ar    1  UNL1        0.1110
     26 N          14.5873   39.3850   32.3182 N.ar    1  UNL1       -0.1585
     27 N          15.9182   39.1924   31.9607 N.ar    1  UNL1       -0.1705
     28 C          17.0212   39.4069   32.7367 C.ar    1  UNL1        0.2834
     29 O          16.8942   39.8134   33.8813 O.2     1  UNL1       -0.2650
     30 C          18.2935   39.1612   32.2196 C.ar    1  UNL1        0.0810
     31 C          18.4294   38.7028   30.9263 C.ar    1  UNL1        0.1097
     32 N          17.3339   38.5045   30.1976 N.ar    1  UNL1       -0.2213
     33 C          16.1439   38.7375   30.6905 C.ar    1  UNL1        0.1992
     34 S          14.4956   38.5927   30.0357 S.2     1  UNL1       -0.0321
     35 C          11.3878   38.3168   30.7872 C.3     1  UNL1        0.0073
     36 C          12.1326   39.2937   31.6993 C.3     1  UNL1        0.0545
@<TRIPOS>BOND
     1    35    36    1
     2    36    25    1
     3    25    34   ar
     4    25    26   ar
     5    26    27   ar
     6    27    33   ar
     7    27    28   ar
     8    28    29    2
     9    28    30   ar
    10    30    31   ar
    11    31    32   ar
    12    31    24    1
    13    32    33   ar
    14    33    34   ar
    15    24    23    1
    16    23    21    1
    17    21    22    2
    18    21     1    1
    19     1     2    2
    20     2     3    1
    21     3     7   ar
    22     3     4   ar
    23     4     5   ar
    24     5     6   ar
    25     5    14    1
    26     6     7   ar
    27     7     8    1
    28     8    13   ar
    29     8     9   ar
    30     9    10   ar
    31    10    11   ar
    32    11    12   ar
    33    12    13   ar
    34    14    15    1
    35    15    20   ar
    36    15    16   ar
    37    16    17   ar
    38    17    18   ar
    39    18    19   ar
    40    19    20   ar
@<TRIPOS>MOLECULE
ZINC03341153
 36 38 0 0 0
SMALL
GASTEIGER

@<TRIPOS>ATOM
      1 C          25.1787   37.7879   27.8153 C.ar    1  UNL1        0.0875
      2 C          23.8021   37.8209   27.5816 C.ar    1  UNL1        0.0275
      3 C          22.9258   37.4898   28.5933 C.ar    1  UNL1        0.1257
      4 C          23.4067   37.1302   29.8407 C.ar    1  UNL1        0.0211
      5 C          24.7681   37.0898   30.0791 C.ar    1  UNL1        0.0130
      6 C          25.6581   37.4189   29.0751 C.ar    1  UNL1        0.0640
      7 CL         27.3670   37.3736   29.3774 Cl      1  UNL1       -0.0820
      8 S          21.1890   37.5316   28.2999 S.O2    1  UNL1        0.0769
      9 O          20.6161   36.5115   29.1065 O.2     1  UNL1       -0.1497
     10 O          21.0161   37.5753   26.8901 O.2     1  UNL1       -0.1497
     11 N          20.6272   38.9732   28.8905 N.pl3   1  UNL1       -0.1862
     12 C          20.0145   39.0229   30.1455 C.ar    1  UNL1        0.0692
     13 C          18.6475   38.8063   30.2614 C.ar    1  UNL1        0.0170
     14 C          18.0456   38.8499   31.5036 C.ar    1  UNL1        0.0127
     15 C          18.8011   39.1214   32.6308 C.ar    1  UNL1        0.0578
     16 C          20.1623   39.3433   32.5176 C.ar    1  UNL1        0.0127
     17 C          20.7705   39.2947   31.2786 C.ar    1  UNL1        0.0170
     18 CL         18.0399   39.1832   34.1899 Cl      1  UNL1       -0.0822
     19 C          20.7781   40.1973   28.1000 C.3     1  UNL1        0.1419
     20 C          22.0441   40.9058   28.5077 C.2     1  UNL1       -0.0029
     21 C          22.0768   42.2146   28.5528 C.2     1  UNL1       -0.0031
     22 C          26.1231   38.1406   26.7365 C.2     1  UNL1        0.3425
     23 O          26.1916   37.4503   25.7393 O.2     1  UNL1       -0.2449
     24 O          26.9088   39.2283   26.8582 O.3     1  UNL1       -0.4353
     25 C          27.3239   39.8823   25.6301 C.3     1  UNL1        0.2929
     26 C          28.6758   42.1618   26.6341 C.3     1  UNL1        0.1153
     27 N          27.3495   42.3227   26.0330 N.am    1  UNL1       -0.2706
     28 C          26.6933   41.2487   25.5509 C.2     1  UNL1        0.2706
     29 O          25.5954   41.3820   25.0532 O.2     1  UNL1       -0.2708
     30 C          26.7365   43.6511   25.9560 C.3     1  UNL1        0.1203
     31 C          26.0981   43.9871   27.2791 C.ar    1  UNL1       -0.0023
     32 C          25.9835   43.0173   28.2574 C.ar    1  UNL1       -0.0026
     33 C          25.4022   43.3268   29.4728 C.ar    1  UNL1       -0.0003
     34 C          24.9264   44.6036   29.7061 C.ar    1  UNL1       -0.0000
     35 C          25.0358   45.5719   28.7257 C.ar    1  UNL1       -0.0003
     36 C          25.6218   45.2637   27.5123 C.ar    1  UNL1       -0.0026
@<TRIPOS>BOND
     1    26    27    1
     2    27    30    1
     3    27    28   am
     4    30    31    1
     5    31    36   ar
     6    31    32   ar
     7    32    33   ar
     8    33    34   ar
     9    34    35   ar
    10    35    36   ar
    11    28    29    2
    12    28    25    1
    13    25    24    1
    14    24    22    1
    15    22    23    2
    16    22     1    1
    17     1     6   ar
    18     1     2   ar
    19     2     3   ar
    20     3     4   ar
    21     3     8    1
    22     4     5   ar
    23     5     6   ar
    24     6     7    1
    25     8     9    2
    26     8    10    2
    27     8    11    1
    28    11    19    1
    29    11    12    1
    30    19    20    1
    31    20    21    2
    32    12    17   ar
    33    12    13   ar
    34    13    14   ar
    35    14    15   ar
    36    15    16   ar
    37    15    18    1
    38    16    17   ar
@<TRIPOS>MOLECULE
ZINC31362441
 39 43 0 0 0
SMALL
GASTEIGER

@<TRIPOS>ATOM
      1 C          26.2345   37.3776   29.3899 C.3     1  UNL1        0.1963
      2 C          26.6024   35.9310   29.1720 C.ar    1  UNL1        0.0279
      3 C          26.6003   35.1150   28.0625 C.ar    1  UNL1       -0.0000
      4 C          27.0009   33.7970   28.1696 C.ar    1  UNL1        0.0009
      5 C          27.4087   33.2873   29.4055 C.ar    1  UNL1        0.0142
      6 C          27.4078   34.1076   30.5320 C.ar    1  UNL1        0.0074
      7 C          27.0079   35.4377   30.4167 C.ar    1  UNL1        0.0756
      8 C          26.9028   36.5333   31.3981 C.2     1  UNL1        0.3417
      9 O          27.1797   36.4391   32.5770 O.2     1  UNL1       -0.2449
     10 O          26.4560   37.6503   30.8006 O.3     1  UNL1       -0.4398
     11 N          22.5919   37.8883   29.2224 N.ar    1  UNL1       -0.3308
     12 C          23.7593   37.6755   29.9038 C.ar    1  UNL1        0.0373
     13 C          24.7854   37.6009   29.0415 C.ar    1  UNL1        0.0347
     14 C          24.2286   37.7711   27.6973 C.ar    1  UNL1        0.0168
     15 C          22.8435   37.9485   27.8700 C.ar    1  UNL1        0.0595
     16 C          22.0363   38.1366   26.7531 C.ar    1  UNL1        0.0172
     17 C          22.5995   38.1470   25.4957 C.ar    1  UNL1        0.0015
     18 C          23.9663   37.9716   25.3306 C.ar    1  UNL1        0.0001
     19 C          24.7780   37.7855   26.4142 C.ar    1  UNL1        0.0013
     20 C          23.8762   37.5476   31.4008 C.3     1  UNL1        0.0498
     21 C          20.8799   39.5041   29.8854 C.3     1  UNL1        0.0265
     22 C          21.2703   38.0254   29.8395 C.3     1  UNL1        0.1058
     23 C          27.1113   38.2678   28.5473 C.ar    1  UNL1        0.0556
     24 C          28.0259   37.7092   27.6745 C.ar    1  UNL1        0.0040
     25 C          28.8278   38.5216   26.8971 C.ar    1  UNL1        0.0145
     26 C          28.7243   39.9037   26.9987 C.ar    1  UNL1        0.0509
     27 C          27.8102   40.4662   27.8786 C.ar    1  UNL1        0.0512
     28 C          27.0034   39.6473   28.6532 C.ar    1  UNL1        0.1396
     29 O          26.1070   40.1950   29.5153 O.3     1  UNL1       -0.4756
     30 C          25.5987   41.4895   29.1870 C.3     1  UNL1        0.2055
     31 C          24.3684   41.3419   28.2896 C.3     1  UNL1        0.0512
     32 N          29.5386   40.7255   26.2162 N.pl3   1  UNL1       -0.3074
     33 C          30.2264   41.8673   26.8238 C.3     1  UNL1        0.0908
     34 C          29.7499   43.1613   26.1611 C.3     1  UNL1        0.0232
     35 C          29.7050   40.4455   24.7879 C.3     1  UNL1        0.0908
     36 C          28.3524   40.5682   24.0833 C.3     1  UNL1        0.0232
     37 C          27.8359   31.8775   29.5186 C.2     1  UNL1        0.0729
     38 O          29.0098   31.5875   29.4034 O.co2   1  UNL1       -0.5446
     39 O          26.9235   30.9138   29.7497 O.co2   1  UNL1       -0.5446
@<TRIPOS>UNITY_ATOM_ATTR
39 1
charge -1
@<TRIPOS>BOND
     1    21    22    1
     2    22    11    1
     3    11    15   ar
     4    11    12   ar
     5    12    13   ar
     6    12    20    1
     7    13    14   ar
     8    13     1    1
     9    14    19   ar
    10    14    15   ar
    11    15    16   ar
    12    16    17   ar
    13    17    18   ar
    14    18    19   ar
    15     1    10    1
    16     1     2    1
    17     1    23    1
    18     2     7   ar
    19     2     3   ar
    20     3     4   ar
    21     4     5   ar
    22     5     6   ar
    23     5    37    1
    24     6     7   ar
    25     7     8    1
    26     8     9    2
    27     8    10    1
    28    37    38   ar
    29    37    39   ar
    30    23    28   ar
    31    23    24   ar
    32    24    25   ar
    33    25    26   ar
    34    26    27   ar
    35    26    32    1
    36    27    28   ar
    37    28    29    1
    38    29    30    1
    39    30    31    1
    40    32    33    1
    41    32    35    1
    42    33    34    1
    43    35    36    1
@<TRIPOS>MOLECULE
ZINC22604303
 36 39 0 0 0
SMALL
GASTEIGER

@<TRIPOS>ATOM
      1 C          20.3631   37.9859   29.6197 C.2     1  UNL1        0.2544
      2 O          20.4220   36.8266   29.2580 O.2     1  UNL1       -0.2695
      3 N          21.3179   38.8590   29.2419 N.am    1  UNL1       -0.2331
      4 C          22.4044   38.4204   28.5048 C.ar    1  UNL1        0.1691
      5 N          23.6032   38.0874   28.9236 N.ar    1  UNL1       -0.2240
      6 C          24.5762   37.6725   28.0839 C.ar    1  UNL1        0.0852
      7 C          25.8990   37.2871   28.4026 C.ar    1  UNL1       -0.0040
      8 C          26.7678   36.8883   27.4208 C.ar    1  UNL1       -0.0070
      9 C          26.3861   36.8473   26.0875 C.ar    1  UNL1       -0.0216
     10 C          25.0999   37.2170   25.7397 C.ar    1  UNL1        0.0038
     11 C          24.2228   37.6183   26.7163 C.ar    1  UNL1        0.0491
     12 S          22.5295   38.1558   26.7417 S.2     1  UNL1       -0.0512
     13 C          27.3631   36.4039   25.0292 C.3     1  UNL1        0.0310
     14 C          26.3584   37.3156   29.8376 C.3     1  UNL1        0.0326
     15 C          16.9211   38.9980   30.7332 C.ar    1  UNL1        0.1754
     16 C          17.9664   38.5803   29.9310 C.ar    1  UNL1        0.0448
     17 C          19.2465   38.4370   30.4723 C.ar    1  UNL1        0.0602
     18 C          19.4675   38.7219   31.8223 C.ar    1  UNL1        0.0448
     19 C          18.4198   39.1447   32.6186 C.ar    1  UNL1        0.1754
     20 C          17.1452   39.2867   32.0767 C.ar    1  UNL1        0.2059
     21 O          15.6736   39.1323   30.2083 O.3     1  UNL1       -0.4723
     22 C          13.8430   37.6917   29.5647 C.3     1  UNL1        0.0512
     23 C          15.2656   38.1568   29.2471 C.3     1  UNL1        0.2057
     24 O          16.1169   39.7024   32.8618 O.3     1  UNL1       -0.4695
     25 C          15.8040   41.0966   32.8365 C.3     1  UNL1        0.2058
     26 C          15.7496   41.6331   34.2684 C.3     1  UNL1        0.0512
     27 O          18.6344   39.4226   33.9326 O.3     1  UNL1       -0.4723
     28 C          19.3259   40.6361   34.2345 C.3     1  UNL1        0.2057
     29 C          20.4838   40.3392   35.1896 C.3     1  UNL1        0.0512
     30 C          21.2058   40.2722   29.6115 C.3     1  UNL1        0.1267
     31 C          21.3450   41.1394   28.3587 C.3     1  UNL1        0.1494
     32 N          22.4753   42.0568   28.5229 N.ar    1  UNL1       -0.2476
     33 C          22.4010   43.3466   28.9129 C.ar    1  UNL1        0.0968
     34 C          23.6596   43.8424   28.9403 C.ar    1  UNL1        0.0427
     35 C          24.5332   42.8207   28.5540 C.ar    1  UNL1        0.1217
     36 N          23.8249   41.7483   28.3089 N.ar    1  UNL1       -0.1676
@<TRIPOS>BOND
     1    22    23    1
     2    23    21    1
     3    21    15    1
     4    15    20   ar
     5    15    16   ar
     6    16    17   ar
     7    17    18   ar
     8    17     1    1
     9    18    19   ar
    10    19    20   ar
    11    19    27    1
    12    20    24    1
    13    24    25    1
    14    25    26    1
    15    27    28    1
    16    28    29    1
    17     1     2    2
    18     1     3   am
    19     3    30    1
    20     3     4    1
    21    30    31    1
    22    31    32    1
    23    32    36   ar
    24    32    33   ar
    25    33    34   ar
    26    34    35   ar
    27    35    36   ar
    28     4    12   ar
    29     4     5   ar
    30     5     6   ar
    31     6    11   ar
    32     6     7   ar
    33     7     8   ar
    34     7    14    1
    35     8     9   ar
    36     9    10   ar
    37     9    13    1
    38    10    11   ar
    39    11    12   ar
@<TRIPOS>MOLECULE
ZINC08433425
 44 49 0 0 0
SMALL
GASTEIGER

@<TRIPOS>ATOM
      1 C          26.1030   37.5154   26.8939 C.2     1  UNL1        0.0278
      2 C          26.6833   36.7605   25.9323 C.2     1  UNL1       -0.0350
      3 C          27.0109   37.6177   24.7737 C.2     1  UNL1        0.2340
      4 O          27.5399   37.2335   23.7496 O.2     1  UNL1       -0.2712
      5 N          26.6359   38.8860   25.0203 N.am    1  UNL1       -0.2669
      6 C          26.0396   38.9276   26.3607 C.3     1  UNL1        0.1231
      7 O          26.9254   35.4321   26.0180 O.co2   1  UNL1       -0.8701
      8 C          26.8273   39.8536   27.2510 C.ar    1  UNL1        0.0030
      9 C          28.2091   39.7977   27.2561 C.ar    1  UNL1       -0.0021
     10 C          28.9349   40.6490   28.0682 C.ar    1  UNL1        0.0029
     11 C          28.2808   41.5512   28.8850 C.ar    1  UNL1        0.0375
     12 C          26.8945   41.6058   28.8858 C.ar    1  UNL1        0.1450
     13 C          26.1684   40.7536   28.0657 C.ar    1  UNL1        0.0351
     14 O          26.2487   42.4919   29.6885 O.3     1  UNL1       -0.4535
     15 C          25.6131   43.5393   29.1008 C.ar    1  UNL1        0.1453
     16 C          24.2386   43.6790   29.2296 C.ar    1  UNL1        0.0375
     17 C          23.5957   44.7481   28.6362 C.ar    1  UNL1        0.0031
     18 C          24.3190   45.6717   27.9043 C.ar    1  UNL1        0.0002
     19 C          25.6879   45.5315   27.7697 C.ar    1  UNL1        0.0031
     20 C          26.3365   44.4677   28.3661 C.ar    1  UNL1        0.0375
     21 C          25.6274   37.0521   28.2013 C.2     1  UNL1        0.1925
     22 O          26.3235   36.3170   28.8767 O.2     1  UNL1       -0.2869
     23 C          20.8698   38.2537   27.3098 C.3     1  UNL1        0.0342
     24 C          22.0123   38.0565   28.2726 C.ar    1  UNL1        0.0122
     25 C          23.2449   37.6597   27.8046 C.ar    1  UNL1        0.0019
     26 C          24.3042   37.4774   28.6985 C.ar    1  UNL1        0.0385
     27 C          24.1053   37.6937   30.0658 C.ar    1  UNL1        0.0063
     28 C          22.8714   38.0958   30.5246 C.ar    1  UNL1        0.0367
     29 C          21.8204   38.2760   29.6319 C.ar    1  UNL1        0.1350
     30 O          20.6042   38.6675   30.0889 O.3     1  UNL1       -0.4710
     31 C          20.4891   38.9229   31.4902 C.3     1  UNL1        0.2320
     32 C          19.0374   39.1082   31.8496 C.ar    1  UNL1        0.0212
     33 C          18.0508   38.7171   30.9638 C.ar    1  UNL1       -0.0007
     34 C          16.7191   38.8822   31.2957 C.ar    1  UNL1       -0.0002
     35 C          16.3741   39.4485   32.5087 C.ar    1  UNL1       -0.0000
     36 C          17.3608   39.8448   33.3920 C.ar    1  UNL1       -0.0002
     37 C          18.6925   39.6744   33.0625 C.ar    1  UNL1       -0.0007
     38 C          26.7942   40.0240   24.1113 C.3     1  UNL1        0.1225
     39 C          25.6689   40.0265   23.1090 C.ar    1  UNL1        0.0169
     40 C          24.3578   40.2001   23.5258 C.ar    1  UNL1        0.0005
     41 C          23.3555   40.2000   22.5681 C.ar    1  UNL1        0.0204
     42 C          23.6929   40.0184   21.2400 C.ar    1  UNL1        0.0989
     43 N          24.9504   39.8512   20.8805 N.ar    1  UNL1       -0.2426
     44 C          25.9300   39.8503   21.7635 C.ar    1  UNL1        0.0962
@<TRIPOS>UNITY_ATOM_ATTR
7 1
charge -1
@<TRIPOS>BOND
     1    23    24    1
     2    24    29   ar
     3    24    25   ar
     4    25    26   ar
     5    26    27   ar
     6    26    21    1
     7    27    28   ar
     8    28    29   ar
     9    29    30    1
    10    30    31    1
    11    31    32    1
    12    32    37   ar
    13    32    33   ar
    14    33    34   ar
    15    34    35   ar
    16    35    36   ar
    17    36    37   ar
    18    21    22    2
    19    21     1    1
    20     1     6    1
    21     1     2    2
    22     2     3    1
    23     2     7    1
    24     3     4    2
    25     3     5   am
    26     5     6    1
    27     5    38    1
    28     6     8    1
    29     8    13   ar
    30     8     9   ar
    31     9    10   ar
    32    10    11   ar
    33    11    12   ar
    34    12    13   ar
    35    12    14    1
    36    14    15    1
    37    15    20   ar
    38    15    16   ar
    39    16    17   ar
    40    17    18   ar
    41    18    19   ar
    42    19    20   ar
    43    38    39    1
    44    39    44   ar
    45    39    40   ar
    46    40    41   ar
    47    41    42   ar
    48    42    43   ar
    49    43    44   ar
@<TRIPOS>MOLECULE
ZINC16742407
 37 40 0 0 0
SMALL
GASTEIGER

@<TRIPOS>ATOM
      1 C          24.1909   41.3364   27.4244 C.2     1  UNL1        0.0115
      2 C          24.4338   41.1128   26.1064 C.ar    1  UNL1        0.0902
      3 C          25.2098   41.9147   25.1499 C.ar    1  UNL1        0.2881
      4 O          25.7543   42.9483   25.4911 O.2     1  UNL1       -0.2645
      5 N          25.2971   41.4690   23.8891 N.ar    1  UNL1       -0.1689
      6 C          24.6671   40.3027   23.5558 C.ar    1  UNL1        0.1999
      7 S          23.8957   39.7646   25.0645 S.2     1  UNL1       -0.0437
      8 N          24.8669   40.0381   22.2958 N.ar    1  UNL1       -0.2000
      9 C          25.6262   41.0059   21.7547 C.ar    1  UNL1        0.1842
     10 N          25.9119   41.8942   22.6791 N.ar    1  UNL1       -0.1412
     11 C          21.4431   38.8775   29.5234 C.ar    1  UNL1        0.1722
     12 C          21.0495   40.1318   29.0754 C.ar    1  UNL1        0.0400
     13 C          21.9378   40.9338   28.3936 C.ar    1  UNL1        0.0033
     14 C          23.2418   40.4843   28.1507 C.ar    1  UNL1        0.0039
     15 C          23.6357   39.2168   28.5980 C.ar    1  UNL1        0.0401
     16 C          22.7396   38.4225   29.2857 C.ar    1  UNL1        0.1722
     17 O          20.5621   38.0913   30.1949 O.3     1  UNL1       -0.4724
     18 C          19.3368   38.6981   30.6100 C.3     1  UNL1        0.2056
     19 C          19.2204   38.6216   32.1337 C.3     1  UNL1        0.0473
     20 C          19.8235   39.8829   32.7552 C.3     1  UNL1        0.0038
     21 C          20.2794   40.2147   35.1893 C.3     1  UNL1        0.0000
     22 C          20.7349   39.4916   33.9202 C.3     1  UNL1        0.0001
     23 O          23.1201   37.1935   29.7265 O.3     1  UNL1       -0.4724
     24 C          24.5039   37.0147   30.0350 C.3     1  UNL1        0.2057
     25 C          24.6570   36.6890   31.5221 C.3     1  UNL1        0.0512
     26 C          26.0666   41.0620   20.3499 C.2     1  UNL1        0.0406
     27 C          25.2224   40.7087   19.3667 C.2     1  UNL1        0.0033
     28 C          25.6629   40.7649   17.9620 C.ar    1  UNL1        0.0033
     29 C          26.9795   41.1191   17.6541 C.ar    1  UNL1        0.0033
     30 C          27.3895   41.1705   16.3388 C.ar    1  UNL1        0.0400
     31 C          26.4982   40.8713   15.3184 C.ar    1  UNL1        0.1724
     32 C          25.1842   40.5174   15.6176 C.ar    1  UNL1        0.1724
     33 C          24.7668   40.4584   16.9339 C.ar    1  UNL1        0.0400
     34 O          24.3137   40.2249   14.6145 O.3     1  UNL1       -0.4684
     35 C          23.0224   39.7459   14.9954 C.3     1  UNL1        0.2526
     36 O          26.9078   40.9240   14.0233 O.3     1  UNL1       -0.4684
     37 C          28.3169   40.9706   13.7901 C.3     1  UNL1        0.2526
@<TRIPOS>BOND
     1    21    22    1
     2    22    20    1
     3    20    19    1
     4    19    18    1
     5    18    17    1
     6    17    11    1
     7    11    16   ar
     8    11    12   ar
     9    12    13   ar
    10    13    14   ar
    11    14    15   ar
    12    14     1    1
    13    15    16   ar
    14    16    23    1
    15    23    24    1
    16    24    25    1
    17     1     2    2
    18     2     7   ar
    19     2     3   ar
    20     3     4    2
    21     3     5   ar
    22     5    10   ar
    23     5     6   ar
    24     6     7   ar
    25     6     8   ar
    26     8     9   ar
    27     9    10   ar
    28     9    26    1
    29    26    27    2
    30    27    28    1
    31    28    33   ar
    32    28    29   ar
    33    29    30   ar
    34    30    31   ar
    35    31    32   ar
    36    31    36    1
    37    32    33   ar
    38    32    34    1
    39    34    35    1
    40    36    37    1
@<TRIPOS>MOLECULE
ZINC00693047
 35 38 0 0 0
SMALL
GASTEIGER

@<TRIPOS>ATOM
      1 C          21.1842   39.1497   29.4673 C.3     1  UNL1        0.1806
      2 N          19.6889   39.0288   31.4340 N.am    1  UNL1       -0.2696
      3 C          20.1368   38.4557   30.2994 C.2     1  UNL1        0.2442
      4 O          19.6969   37.3815   29.9480 O.2     1  UNL1       -0.2733
      5 C          20.2203   40.3264   31.8585 C.3     1  UNL1        0.1269
      6 C          20.3649   40.0417   35.6544 C.ar    1  UNL1        0.0072
      7 C          20.6457   39.7304   34.3373 C.ar    1  UNL1        0.0044
      8 C          20.0742   40.4650   33.3519 C.ar    1  UNL1        0.0273
      9 S          19.1095   41.6442   34.2826 S.2     1  UNL1       -0.0891
     10 C          19.5262   41.0725   35.9217 C.ar    1  UNL1        0.0352
     11 C          18.6706   38.3542   32.2430 C.3     1  UNL1        0.1205
     12 C          17.3101   38.9024   31.8972 C.ar    1  UNL1       -0.0022
     13 C          16.5516   39.5305   32.8673 C.ar    1  UNL1       -0.0003
     14 C          15.3058   40.0379   32.5501 C.ar    1  UNL1        0.0294
     15 C          14.8131   39.9075   31.2627 C.ar    1  UNL1        0.1401
     16 C          15.5716   39.2735   30.2932 C.ar    1  UNL1        0.0294
     17 C          16.8192   38.7716   30.6114 C.ar    1  UNL1       -0.0003
     18 F          13.5934   40.3990   30.9527 F       1  UNL1       -0.2042
     19 N          21.9289   38.1552   28.6910 N.3     1  UNL1       -0.1437
     20 S          21.7721   38.1042   27.0432 S.O2    1  UNL1        0.0638
     21 O          22.0887   36.7770   26.6460 O.2     1  UNL1       -0.1528
     22 O          20.5268   38.7151   26.7346 O.2     1  UNL1       -0.1528
     23 C          23.0242   39.1441   26.3683 C.ar    1  UNL1        0.1222
     24 C          23.5641   38.8595   25.1278 C.ar    1  UNL1        0.0204
     25 C          24.5430   39.6777   24.5959 C.ar    1  UNL1        0.0081
     26 C          24.9897   40.7752   25.3094 C.ar    1  UNL1        0.0346
     27 C          24.4530   41.0565   26.5529 C.ar    1  UNL1        0.0081
     28 C          23.4705   40.2408   27.0818 C.ar    1  UNL1        0.0204
     29 BR         26.3336   41.8911   24.5850 Br      1  UNL1       -0.0490
     30 C          22.8125   37.2059   29.3723 C.3     1  UNL1        0.1258
     31 C          24.0031   37.9570   29.9717 C.3     1  UNL1        0.1330
     32 C          24.4509   37.2726   31.2778 C.3     1  UNL1        0.0336
     33 C          25.9313   36.8993   31.0223 C.3     1  UNL1        0.0346
     34 C          26.3147   37.8616   29.8693 C.3     1  UNL1        0.1422
     35 O          25.1173   37.9166   29.0644 O.3     1  UNL1       -0.3548
@<TRIPOS>BOND
     1     6    10   ar
     2     6     7   ar
     3     7     8   ar
     4     8     9   ar
     5     8     5    1
     6     9    10   ar
     7     5     2    1
     8     2    11    1
     9     2     3   am
    10    11    12    1
    11    12    17   ar
    12    12    13   ar
    13    13    14   ar
    14    14    15   ar
    15    15    16   ar
    16    15    18    1
    17    16    17   ar
    18     3     4    2
    19     3     1    1
    20     1    19    1
    21    19    30    1
    22    19    20    1
    23    30    31    1
    24    31    35    1
    25    31    32    1
    26    32    33    1
    27    33    34    1
    28    34    35    1
    29    20    21    2
    30    20    22    2
    31    20    23    1
    32    23    28   ar
    33    23    24   ar
    34    24    25   ar
    35    25    26   ar
    36    26    27   ar
    37    26    29    1
    38    27    28   ar
@<TRIPOS>MOLECULE
ZINC03487172
 35 37 0 0 0
SMALL
GASTEIGER

@<TRIPOS>ATOM
      1 C          25.6512   41.9624   28.5231 C.ar    1  UNL1        0.1256
      2 C          25.4962   43.3200   28.7426 C.ar    1  UNL1        0.0202
      3 C          24.2311   43.8723   28.8351 C.ar    1  UNL1        0.0016
      4 C          23.1146   43.0715   28.7089 C.ar    1  UNL1        0.0065
      5 C          23.2637   41.7012   28.4877 C.ar    1  UNL1        0.0770
      6 C          24.5437   41.1512   28.3902 C.ar    1  UNL1        0.0266
      7 S          27.2671   41.2698   28.4058 S.O2    1  UNL1        0.0766
      8 O          27.1672   39.9268   28.8593 O.2     1  UNL1       -0.1497
      9 O          28.1554   42.2090   28.9959 O.2     1  UNL1       -0.1497
     10 N          27.6537   41.1987   26.7972 N.pl3   1  UNL1       -0.1888
     11 C          29.0389   41.4042   26.3669 C.3     1  UNL1        0.1392
     12 C          23.6163   40.1597   22.9532 C.3     1  UNL1        0.0310
     13 C          24.6894   40.4358   23.9745 C.ar    1  UNL1       -0.0218
     14 C          25.1088   41.7339   24.2009 C.ar    1  UNL1       -0.0029
     15 C          26.0916   41.9906   25.1365 C.ar    1  UNL1        0.0158
     16 C          26.6591   40.9429   25.8506 C.ar    1  UNL1        0.0688
     17 C          26.2393   39.6395   25.6169 C.ar    1  UNL1        0.0158
     18 C          25.2522   39.3905   24.6836 C.ar    1  UNL1       -0.0029
     19 C          22.0729   40.8376   28.3521 C.2     1  UNL1        0.3415
     20 O          20.9680   41.3353   28.2688 O.2     1  UNL1       -0.2449
     21 O          22.2123   39.4981   28.3207 O.3     1  UNL1       -0.4412
     22 C          21.1082   38.7331   27.7694 C.3     1  UNL1        0.2300
     23 C          21.6003   37.9177   26.5721 C.3     1  UNL1        0.0560
     24 C          20.5668   37.8017   28.8232 C.2     1  UNL1        0.2128
     25 O          20.4805   36.6138   28.5959 O.2     1  UNL1       -0.2875
     26 C          20.1426   38.3340   30.1280 C.ar    1  UNL1        0.0383
     27 C          21.0977   38.7293   31.0701 C.ar    1  UNL1        0.0026
     28 C          20.6921   39.2322   32.2882 C.ar    1  UNL1       -0.0042
     29 C          19.3440   39.3355   32.5842 C.ar    1  UNL1       -0.0228
     30 C          18.3928   38.9412   31.6594 C.ar    1  UNL1       -0.0042
     31 C          18.7823   38.4419   30.4345 C.ar    1  UNL1        0.0026
     32 C          18.9096   39.8805   33.9204 C.3     1  UNL1        0.0189
     33 C          17.3869   39.7891   34.0377 C.3     1  UNL1        0.0044
     34 C          19.5574   39.0630   35.0396 C.3     1  UNL1        0.0044
     35 C          19.3435   41.3428   34.0401 C.3     1  UNL1        0.0044
@<TRIPOS>BOND
     1    12    13    1
     2    13    18   ar
     3    13    14   ar
     4    14    15   ar
     5    15    16   ar
     6    16    17   ar
     7    16    10    1
     8    17    18   ar
     9    10    11    1
    10    10     7    1
    11     7     8    2
    12     7     9    2
    13     7     1    1
    14     1     6   ar
    15     1     2   ar
    16     2     3   ar
    17     3     4   ar
    18     4     5   ar
    19     5     6   ar
    20     5    19    1
    21    19    20    2
    22    19    21    1
    23    21    22    1
    24    22    23    1
    25    22    24    1
    26    24    25    2
    27    24    26    1
    28    26    31   ar
    29    26    27   ar
    30    27    28   ar
    31    28    29   ar
    32    29    30   ar
    33    29    32    1
    34    30    31   ar
    35    32    33    1
    36    32    34    1
    37    32    35    1
@<TRIPOS>MOLECULE
ZINC10114281
 30 31 0 0 0
SMALL
GASTEIGER

@<TRIPOS>ATOM
      1 N          24.2157   40.9110   26.8534 N.ar    1  UNL1       -0.2892
      2 C          23.2708   40.3266   27.5736 C.ar    1  UNL1        0.2672
      3 O          22.5615   40.9509   28.3414 O.2     1  UNL1       -0.2664
      4 C          23.1339   38.8719   27.3857 C.ar    1  UNL1        0.0870
      5 C          22.2701   38.0028   27.9735 C.2     1  UNL1        0.0144
      6 S          24.4110   38.5597   26.1772 S.2     1  UNL1       -0.0641
      7 C          24.9957   40.1825   26.0006 C.ar    1  UNL1        0.1053
      8 C          26.0318   40.6420   25.1722 C.2     1  UNL1        0.1250
      9 C          21.4155   38.4523   29.0795 C.ar    1  UNL1        0.0403
     10 C          20.0797   38.9076   28.9782 C.ar    1  UNL1        0.1216
     11 N          19.6644   39.2112   30.1769 N.ar    1  UNL1       -0.1676
     12 N          20.6992   38.9794   31.0898 N.ar    1  UNL1       -0.2473
     13 C          21.7669   38.5161   30.4164 C.ar    1  UNL1        0.0967
     14 C          20.6309   39.2041   32.5358 C.3     1  UNL1        0.1538
     15 C          26.6856   39.7376   24.2749 C.1     1  UNL1        0.1053
     16 N          27.2043   39.0200   23.5631 N.1     1  UNL1       -0.1907
     17 C          26.4277   41.9908   25.2235 C.2     1  UNL1        0.1837
     18 O          25.6605   42.8634   24.8665 O.2     1  UNL1       -0.2906
     19 C          27.8030   42.3540   25.7213 C.3     1  UNL1        0.0563
     20 C          28.2556   41.3287   26.7629 C.3     1  UNL1        0.0077
     21 C          28.7855   42.3573   24.5485 C.3     1  UNL1        0.0077
     22 C          27.7641   43.7446   26.3579 C.3     1  UNL1        0.0077
     23 C          24.4231   42.3567   26.9680 C.3     1  UNL1        0.1095
     24 C          24.4006   42.7598   28.4438 C.3     1  UNL1        0.0227
     25 C          25.8298   42.7759   28.9898 C.3     1  UNL1        0.0019
     26 C          26.1249   41.4457   29.6859 C.3     1  UNL1        0.0001
     27 C          23.7860   44.1540   28.5824 C.3     1  UNL1        0.0019
     28 C          24.8852   45.1653   28.9137 C.3     1  UNL1        0.0001
     29 C          24.3479   47.2708   27.6806 C.3     1  UNL1        0.0000
     30 C          25.2009   46.0007   27.6713 C.3     1  UNL1        0.0000
@<TRIPOS>BOND
     1    29    30    1
     2    30    28    1
     3    28    27    1
     4    27    24    1
     5    24    25    1
     6    24    23    1
     7    25    26    1
     8    23     1    1
     9     1     7   ar
    10     1     2   ar
    11     2     3    2
    12     2     4   ar
    13     4     5    2
    14     4     6   ar
    15     5     9    1
    16     9    13   ar
    17     9    10   ar
    18    10    11   ar
    19    11    12   ar
    20    12    13   ar
    21    12    14    1
    22     6     7   ar
    23     7     8    2
    24     8    15    1
    25     8    17    1
    26    15    16    3
    27    17    18    2
    28    17    19    1
    29    19    20    1
    30    19    21    1
    31    19    22    1
@<TRIPOS>MOLECULE
ZINC26488274
 32 35 0 0 0
SMALL
GASTEIGER

@<TRIPOS>ATOM
      1 C          18.8610   38.8260   31.0919 C.ar    1  UNL1        0.0598
      2 C          19.3436   38.3973   29.9054 C.ar    1  UNL1        0.1012
      3 N          20.6762   38.6607   29.8780 N.ar    1  UNL1       -0.2284
      4 N          21.0203   39.2802   31.0863 N.ar    1  UNL1       -0.1653
      5 C          19.9323   39.3787   31.8210 C.ar    1  UNL1        0.1022
      6 C          19.8489   39.9693   33.1798 C.ar    1  UNL1        0.0192
      7 C          20.5101   39.3645   34.2469 C.ar    1  UNL1        0.0015
      8 C          20.4333   39.9211   35.5075 C.ar    1  UNL1        0.0000
      9 C          19.6924   41.0706   35.7149 C.ar    1  UNL1        0.0000
     10 C          19.0297   41.6721   34.6602 C.ar    1  UNL1        0.0000
     11 C          19.1042   41.1274   33.3943 C.ar    1  UNL1        0.0015
     12 C          21.5521   38.3673   28.8245 C.ar    1  UNL1        0.0828
     13 C          22.9162   38.2628   29.0623 C.ar    1  UNL1        0.0191
     14 C          23.7763   37.9684   28.0225 C.ar    1  UNL1        0.0015
     15 C          23.2817   37.7888   26.7437 C.ar    1  UNL1        0.0001
     16 C          21.9243   37.8975   26.5028 C.ar    1  UNL1        0.0015
     17 C          21.0584   38.1861   27.5393 C.ar    1  UNL1        0.0191
     18 C          17.4298   38.7300   31.5540 C.3     1  UNL1        0.2385
     19 O          16.5511   39.2410   30.5171 O.3     1  UNL1       -0.4392
     20 C          15.6786   38.3714   29.9714 C.2     1  UNL1        0.3612
     21 O          16.0747   37.5085   29.2137 O.2     1  UNL1       -0.2431
     22 N          12.0837   38.1040   29.6653 N.ar    1  UNL1       -0.2165
     23 C          11.5995   38.6101   30.8148 C.ar    1  UNL1        0.2765
     24 O          10.3957   38.6551   31.0067 O.2     1  UNL1       -0.2655
     25 C          12.4945   39.0892   31.7971 C.ar    1  UNL1        0.0640
     26 C          13.8301   39.0169   31.5339 C.ar    1  UNL1        0.0324
     27 C          14.2400   38.4674   30.2947 C.ar    1  UNL1        0.1764
     28 N          13.3445   38.0473   29.4291 N.ar    1  UNL1       -0.1602
     29 C          11.1464   37.6101   28.6535 C.3     1  UNL1        0.1307
     30 C          11.8572   37.5169   27.3019 C.3     1  UNL1        0.0265
     31 C          10.4182   36.8211   25.3817 C.3     1  UNL1        0.0001
     32 C          11.3105   36.3211   26.5195 C.3     1  UNL1        0.0021
@<TRIPOS>BOND
     1    31    32    1
     2    32    30    1
     3    30    29    1
     4    29    22    1
     5    22    28   ar
     6    22    23   ar
     7    23    24    2
     8    23    25   ar
     9    25    26   ar
    10    26    27   ar
    11    27    28   ar
    12    27    20    1
    13    20    21    2
    14    20    19    1
    15    19    18    1
    16    18     1    1
    17     1     5   ar
    18     1     2   ar
    19     2     3   ar
    20     3     4   ar
    21     3    12    1
    22     4     5   ar
    23     5     6    1
    24     6    11   ar
    25     6     7   ar
    26     7     8   ar
    27     8     9   ar
    28     9    10   ar
    29    10    11   ar
    30    12    17   ar
    31    12    13   ar
    32    13    14   ar
    33    14    15   ar
    34    15    16   ar
    35    16    17   ar
@<TRIPOS>MOLECULE
ZINC08448668
 28 30 0 0 0
SMALL
GASTEIGER

@<TRIPOS>ATOM
      1 C          22.6455   39.0390   27.2093 C.ar    1  UNL1        0.1166
      2 C          21.6851   38.6721   28.1694 C.ar    1  UNL1        0.0919
      3 C          21.3255   39.6074   29.1669 C.ar    1  UNL1        0.0136
      4 C          21.9505   40.8526   29.1588 C.ar    1  UNL1        0.0204
      5 C          22.8922   41.1363   28.1708 C.ar    1  UNL1        0.0878
      6 N          23.2060   40.2361   27.2414 N.ar    1  UNL1       -0.2380
      7 C          23.5519   42.4550   28.1551 C.ar    1  UNL1        0.0471
      8 C          23.1327   43.6378   28.7087 C.ar    1  UNL1        0.0085
      9 C          23.9271   44.7518   28.5678 C.ar    1  UNL1        0.0075
     10 C          25.0935   44.6509   27.8771 C.ar    1  UNL1        0.0355
     11 S          25.1005   42.9296   27.4038 S.2     1  UNL1       -0.0849
     12 C          20.3163   39.2707   30.1955 C.ar    1  UNL1        0.0078
     13 C          20.6532   39.2506   31.5485 C.ar    1  UNL1        0.0075
     14 C          19.6803   38.9401   32.4335 C.ar    1  UNL1        0.0355
     15 S          18.2756   38.6574   31.3723 S.2     1  UNL1       -0.0859
     16 C          19.0316   38.9661   29.8434 C.ar    1  UNL1        0.0355
     17 C          21.0776   37.3758   28.1335 C.1     1  UNL1        0.1024
     18 N          20.5956   36.3476   28.1051 N.1     1  UNL1       -0.1908
     19 S          23.1052   37.8932   25.9521 S.3     1  UNL1       -0.0863
     20 C          24.7809   38.4758   25.5934 C.3     1  UNL1        0.1284
     21 C          25.7830   37.5180   26.1843 C.2     1  UNL1        0.1731
     22 O          25.8483   36.3837   25.7748 O.2     1  UNL1       -0.2945
     23 C          26.7037   37.9755   27.2861 C.3     1  UNL1        0.1746
     24 C          25.9006   38.2436   28.5329 C.2     1  UNL1        0.3246
     25 O          26.0529   39.2779   29.1387 O.2     1  UNL1       -0.2496
     26 O          25.0161   37.3336   28.9702 O.3     1  UNL1       -0.4482
     27 C          23.9553   37.4583   31.1586 C.3     1  UNL1        0.0513
     28 C          25.1355   36.9102   30.3540 C.3     1  UNL1        0.2086
@<TRIPOS>BOND
     1    27    28    1
     2    28    26    1
     3    26    24    1
     4    24    25    2
     5    24    23    1
     6    23    21    1
     7    21    22    2
     8    21    20    1
     9    20    19    1
    10    19     1    1
    11     1     6   ar
    12     1     2   ar
    13     2     3   ar
    14     2    17    1
    15     3     4   ar
    16     3    12    1
    17     4     5   ar
    18     5     6   ar
    19     5     7    1
    20     7    11   ar
    21     7     8   ar
    22     8     9   ar
    23     9    10   ar
    24    10    11   ar
    25    12    16   ar
    26    12    13   ar
    27    13    14   ar
    28    14    15   ar
    29    15    16   ar
    30    17    18    3
@<TRIPOS>MOLECULE
ZINC29042473
 29 31 0 0 0
SMALL
GASTEIGER

@<TRIPOS>ATOM
      1 C          12.8319   37.8083   29.3488 C.2     1  UNL1        0.2181
      2 O          11.7942   37.7394   29.9738 O.2     1  UNL1       -0.2873
      3 C          17.7018   38.7923   30.4791 C.3     1  UNL1        0.0500
      4 C          16.1949   38.7682   30.4722 C.ar    1  UNL1        0.0372
      5 C          15.4313   38.0583   29.6248 C.ar    1  UNL1        0.0168
      6 C          14.0366   38.3441   29.9864 C.ar    1  UNL1        0.0512
      7 C          14.0947   39.2180   31.0558 C.ar    1  UNL1        0.0400
      8 N          15.3890   39.4587   31.3305 N.ar    1  UNL1       -0.3335
      9 C          12.9125   39.7998   31.7872 C.3     1  UNL1        0.0501
     10 C          15.8665   40.3380   32.4006 C.3     1  UNL1        0.1106
     11 C          16.3280   39.4913   33.5885 C.3     1  UNL1        0.0574
     12 C          17.6782   39.9724   34.0538 C.ar    1  UNL1        0.0092
     13 C          18.0555   41.2166   34.4372 C.ar    1  UNL1        0.0028
     14 C          19.3634   41.4290   34.8308 C.ar    1  UNL1        0.0072
     15 C          20.2300   40.3868   34.8217 C.ar    1  UNL1        0.0351
     16 S          19.1939   39.0499   34.2505 S.2     1  UNL1       -0.0907
     17 C          12.8812   37.3425   27.9164 C.3     1  UNL1        0.2770
     18 O          11.8452   38.0149   27.1529 O.3     1  UNL1       -0.4365
     19 C          11.3550   37.3625   26.0797 C.2     1  UNL1        0.3477
     20 O          11.1439   36.1671   26.1394 O.2     1  UNL1       -0.2443
     21 C          11.0758   38.0974   24.8370 C.ar    1  UNL1        0.1053
     22 C          10.4495   37.6506   23.6818 C.ar    1  UNL1        0.0137
     23 C          10.2980   38.5197   22.6393 C.ar    1  UNL1        0.0137
     24 C          10.7765   39.8153   22.7764 C.ar    1  UNL1        0.1053
     25 S          11.4633   39.7905   24.4241 S.2     1  UNL1       -0.0741
     26 C          10.7341   40.9227   21.8099 C.2     1  UNL1        0.3474
     27 O          10.4105   40.7117   20.6576 O.2     1  UNL1       -0.2443
     28 O          11.0544   42.1723   22.2020 O.3     1  UNL1       -0.4410
     29 C          10.7438   43.2518   21.2820 C.3     1  UNL1        0.2560
@<TRIPOS>BOND
     1     3     4    1
     2     4     8   ar
     3     4     5   ar
     4     5     6   ar
     5     6     7   ar
     6     6     1    1
     7     7     8   ar
     8     7     9    1
     9     8    10    1
    10    10    11    1
    11    11    12    1
    12    12    16   ar
    13    12    13   ar
    14    13    14   ar
    15    14    15   ar
    16    15    16   ar
    17     1     2    2
    18     1    17    1
    19    17    18    1
    20    18    19    1
    21    19    20    2
    22    19    21    1
    23    21    25   ar
    24    21    22   ar
    25    22    23   ar
    26    23    24   ar
    27    24    25   ar
    28    24    26    1
    29    26    27    2
    30    26    28    1
    31    28    29    1
@<TRIPOS>MOLECULE
ZINC06756447
 31 33 0 0 0
SMALL
GASTEIGER

@<TRIPOS>ATOM
      1 C          22.6876   40.1259   28.6775 C.ar    1  UNL1        0.2253
      2 N          21.4520   40.0482   29.1624 N.ar    1  UNL1       -0.1769
      3 C          21.1260   39.0653   29.9922 C.ar    1  UNL1        0.2577
      4 N          22.0333   38.1598   30.3385 N.ar    1  UNL1       -0.1732
      5 C          23.2675   38.2365   29.8547 C.ar    1  UNL1        0.2577
      6 N          23.5967   39.2216   29.0289 N.ar    1  UNL1       -0.1769
      7 N          24.2182   37.2863   30.2188 N.ar    1  UNL1       -0.2007
      8 C          25.2315   36.8264   29.4375 C.ar    1  UNL1        0.0651
      9 C          25.9245   35.9176   30.1598 C.ar    1  UNL1        0.0313
     10 C          25.3210   35.8157   31.4194 C.ar    1  UNL1        0.0806
     11 N          24.3013   36.6333   31.4555 N.ar    1  UNL1       -0.1673
     12 C          25.7707   34.9171   32.5425 C.3     1  UNL1        0.0540
     13 C          25.5287   37.2529   28.0230 C.3     1  UNL1        0.0523
     14 N          19.8319   38.9837   30.5002 N.ar    1  UNL1       -0.2007
     15 C          19.4656   39.1798   31.7949 C.ar    1  UNL1        0.0651
     16 C          18.1260   39.0133   31.8703 C.ar    1  UNL1        0.0313
     17 C          17.6571   38.6971   30.5891 C.ar    1  UNL1        0.0806
     18 N          18.6759   38.6792   29.7699 N.ar    1  UNL1       -0.1673
     19 C          16.2223   38.4237   30.2180 C.3     1  UNL1        0.0540
     20 C          20.3854   39.5241   32.9379 C.3     1  UNL1        0.0523
     21 N          23.0277   41.1477   27.8145 N.pl3   1  UNL1       -0.2781
     22 C          23.9720   40.9002   26.7221 C.3     1  UNL1        0.0936
     23 C          25.1657   41.8478   26.8552 C.3     1  UNL1        0.0215
     24 C          26.2210   41.2143   27.7640 C.3     1  UNL1        0.0018
     25 C          27.5104   43.2468   27.0945 C.3     1  UNL1        0.0000
     26 C          27.1916   42.2935   28.2479 C.3     1  UNL1        0.0001
     27 C          22.4443   42.4800   27.9906 C.3     1  UNL1        0.0936
     28 C          23.2968   43.2840   28.9742 C.3     1  UNL1        0.0215
     29 C          23.5119   44.6963   28.4266 C.3     1  UNL1        0.0018
     30 C          24.8920   45.2030   28.8502 C.3     1  UNL1        0.0001
     31 C          25.2129   44.6931   30.2566 C.3     1  UNL1        0.0000
@<TRIPOS>BOND
     1    25    26    1
     2    26    24    1
     3    24    23    1
     4    23    22    1
     5    22    21    1
     6    21    27    1
     7    21     1    1
     8    27    28    1
     9    28    29    1
    10    29    30    1
    11    30    31    1
    12     1     6   ar
    13     1     2   ar
    14     2     3   ar
    15     3     4   ar
    16     3    14    1
    17     4     5   ar
    18     5     6   ar
    19     5     7    1
    20     7    11   ar
    21     7     8   ar
    22     8     9   ar
    23     8    13    1
    24     9    10   ar
    25    10    11   ar
    26    10    12    1
    27    14    18   ar
    28    14    15   ar
    29    15    16   ar
    30    15    20    1
    31    16    17   ar
    32    17    18   ar
    33    17    19    1
@<TRIPOS>MOLECULE
ZINC29605312
 30 33 0 0 0
SMALL
GASTEIGER

@<TRIPOS>ATOM
      1 C          22.0520   40.0576   27.9200 C.ar    1  UNL1        0.1986
      2 N          21.1937   40.9822   28.2767 N.ar    1  UNL1       -0.1205
      3 N          21.9081   42.1571   28.5445 N.ar    1  UNL1       -0.1119
      4 C          23.1791   41.9165   28.3355 C.ar    1  UNL1        0.2261
      5 N          23.3033   40.6117   27.9436 N.ar    1  UNL1       -0.2543
      6 C          24.5031   39.9563   27.6225 C.ar    1  UNL1        0.1022
      7 C          25.2773   39.3929   28.6256 C.ar    1  UNL1        0.0207
      8 C          26.4577   38.7483   28.3075 C.ar    1  UNL1        0.0017
      9 C          26.8698   38.6634   26.9902 C.ar    1  UNL1        0.0032
     10 C          26.1030   39.2223   25.9851 C.ar    1  UNL1        0.0384
     11 C          24.9155   39.8656   26.2956 C.ar    1  UNL1        0.1548
     12 O          24.1572   40.4110   25.3076 O.3     1  UNL1       -0.4700
     13 C          24.4427   40.0000   23.9690 C.3     1  UNL1        0.2525
     14 N          24.2179   42.8266   28.4855 N.pl3   1  UNL1       -0.2780
     15 C          23.8171   43.9450   29.3486 C.3     1  UNL1        0.0936
     16 C          25.0248   44.8481   29.6090 C.3     1  UNL1        0.0216
     17 C          25.5593   45.3750   28.2744 C.3     1  UNL1        0.0035
     18 C          25.9240   44.1898   27.3761 C.3     1  UNL1        0.0216
     19 C          24.6902   43.3058   27.1803 C.3     1  UNL1        0.0936
     20 S          21.6625   38.3963   27.4805 S.3     1  UNL1       -0.0652
     21 C          21.8154   37.4824   29.0400 C.3     1  UNL1        0.1528
     22 C          19.7809   38.8981   31.6371 C.ar    1  UNL1        0.1805
     23 N          20.9906   38.7047   31.0820 N.ar    1  UNL1       -0.1941
     24 C          20.7764   37.9741   30.0143 C.ar    1  UNL1        0.2477
     25 O          19.4603   37.7495   29.9551 O.2     1  UNL1       -0.3364
     26 N          18.9089   38.2867   30.8926 N.ar    1  UNL1       -0.0606
     27 C          19.4903   39.6798   32.8922 C.3     1  UNL1        0.0692
     28 C          20.7374   39.7038   33.7784 C.3     1  UNL1        0.0081
     29 C          19.4683   41.3435   35.1722 C.3     1  UNL1        0.0000
     30 C          20.3416   40.0877   35.2055 C.3     1  UNL1        0.0005
@<TRIPOS>BOND
     1    29    30    1
     2    30    28    1
     3    28    27    1
     4    27    22    1
     5    22    26   ar
     6    22    23   ar
     7    23    24   ar
     8    24    25   ar
     9    24    21    1
    10    25    26   ar
    11    21    20    1
    12    20     1    1
    13     1     5   ar
    14     1     2   ar
    15     2     3   ar
    16     3     4   ar
    17     4     5   ar
    18     4    14    1
    19     5     6    1
    20     6    11   ar
    21     6     7   ar
    22     7     8   ar
    23     8     9   ar
    24     9    10   ar
    25    10    11   ar
    26    11    12    1
    27    12    13    1
    28    14    19    1
    29    14    15    1
    30    15    16    1
    31    16    17    1
    32    17    18    1
    33    18    19    1
@<TRIPOS>MOLECULE
ZINC04558089
 29 31 0 0 0
SMALL
GASTEIGER

@<TRIPOS>ATOM
      1 P          24.3262   39.8626   28.0640 P.3     1  UNL1        0.1612
      2 N          25.1384   39.1114   29.1547 N.2     1  UNL1       -0.1142
      3 C          24.2500   41.6277   28.4752 C.ar    1  UNL1        0.0388
      4 C          23.0747   42.3309   28.2879 C.ar    1  UNL1        0.0038
      5 C          23.0151   43.6748   28.6062 C.ar    1  UNL1        0.0001
      6 C          24.1339   44.3180   29.1016 C.ar    1  UNL1        0.0000
      7 C          25.3109   43.6162   29.2835 C.ar    1  UNL1        0.0001
      8 C          25.3688   42.2709   28.9705 C.ar    1  UNL1        0.0038
      9 N          25.3188   37.8374   29.0616 N.2     1  UNL1       -0.0395
     10 N          26.4856   37.3334   29.2822 N.2     1  UNL1       -0.1023
     11 C          26.6722   36.0159   29.1859 C.ar    1  UNL1        0.2163
     12 N          26.7928   35.2660   28.0915 N.ar    1  UNL1       -0.2191
     13 C          26.9769   33.9518   28.1427 C.ar    1  UNL1        0.0895
     14 C          27.1197   33.0404   27.0569 C.ar    1  UNL1        0.0197
     15 C          27.3089   31.7173   27.2841 C.ar    1  UNL1        0.0016
     16 C          27.3587   31.1934   28.5738 C.ar    1  UNL1        0.0006
     17 C          27.2245   32.0399   29.6595 C.ar    1  UNL1        0.0081
     18 C          27.0387   33.3829   29.4497 C.ar    1  UNL1        0.0500
     19 S          26.8242   34.8051   30.4926 S.2     1  UNL1       -0.0455
     20 N          25.0770   39.6663   26.5707 N.3     1  UNL1       -0.2314
     21 C          24.1015   39.7660   24.3267 C.3     1  UNL1        0.0191
     22 C          24.4973   40.5691   25.5672 C.3     1  UNL1        0.0783
     23 C          26.5284   39.8643   26.6812 C.3     1  UNL1        0.0783
     24 C          27.2549   38.6875   26.0268 C.3     1  UNL1        0.0191
     25 N          22.7662   39.2350   27.9945 N.3     1  UNL1       -0.2314
     26 C          22.7524   37.9327   27.3149 C.3     1  UNL1        0.0783
     27 C          21.5542   37.8652   26.3659 C.3     1  UNL1        0.0191
     28 C          22.1788   39.1343   29.3372 C.3     1  UNL1        0.0783
     29 C          20.7734   39.7387   29.3258 C.3     1  UNL1        0.0191
@<TRIPOS>BOND
     1    21    22    1
     2    22    20    1
     3    20    23    1
     4    20     1    1
     5    23    24    1
     6     1     2    2
     7     1     3    1
     8     1    25    1
     9     2     9    1
    10     9    10    2
    11    10    11    1
    12    11    19   ar
    13    11    12   ar
    14    12    13   ar
    15    13    18   ar
    16    13    14   ar
    17    14    15   ar
    18    15    16   ar
    19    16    17   ar
    20    17    18   ar
    21    18    19   ar
    22     3     8   ar
    23     3     4   ar
    24     4     5   ar
    25     5     6   ar
    26     6     7   ar
    27     7     8   ar
    28    25    26    1
    29    25    28    1
    30    26    27    1
    31    28    29    1
@<TRIPOS>MOLECULE
ZINC18619117
 32 35 0 0 0
SMALL
GASTEIGER

@<TRIPOS>ATOM
      1 O          19.2201   39.8551   34.9556 O.3     1  UNL1       -0.4350
      2 C          20.4703   40.0011   34.4691 C.2     1  UNL1        0.3419
      3 O          21.2880   40.6617   35.0816 O.2     1  UNL1       -0.2449
      4 C          20.8306   39.3852   33.2454 C.2     1  UNL1        0.0835
      5 C          19.9382   39.3208   32.2328 C.2     1  UNL1        0.0292
      6 C          20.3121   38.6818   30.9633 C.ar    1  UNL1        0.1234
      7 C          21.5721   38.6733   30.4027 C.ar    1  UNL1        0.1179
      8 N          21.4764   37.9803   29.2489 N.ar    1  UNL1       -0.2257
      9 N          20.1386   37.5816   29.1227 N.ar    1  UNL1       -0.0635
     10 N          19.4832   38.0092   30.1447 N.ar    1  UNL1       -0.1287
     11 C          22.5623   37.7024   28.3055 C.3     1  UNL1        0.1556
     12 C          23.4972   38.8832   28.2537 C.ar    1  UNL1        0.0022
     13 C          23.1336   40.0227   27.5606 C.ar    1  UNL1       -0.0023
     14 C          23.9891   41.1077   27.5170 C.ar    1  UNL1       -0.0003
     15 C          25.2125   41.0493   28.1578 C.ar    1  UNL1       -0.0000
     16 C          25.5783   39.9080   28.8466 C.ar    1  UNL1       -0.0003
     17 C          24.7206   38.8249   28.8945 C.ar    1  UNL1       -0.0023
     18 C          18.4174   41.0339   35.0459 C.3     1  UNL1        0.2957
     19 C          15.9858   40.3741   32.4824 C.ar    1  UNL1        0.2034
     20 N          16.9734   39.9417   33.2985 N.ar    1  UNL1       -0.1876
     21 C          17.3402   40.9899   33.9929 C.ar    1  UNL1        0.2812
     22 O          16.5752   42.0119   33.5965 O.2     1  UNL1       -0.3331
     23 N          15.8064   41.6448   32.7331 N.ar    1  UNL1       -0.0559
     24 C          13.8503   38.0358   29.6440 C.ar    1  UNL1       -0.0225
     25 C          15.1670   38.3824   29.4002 C.ar    1  UNL1       -0.0042
     26 C          15.8632   39.1454   30.3156 C.ar    1  UNL1        0.0028
     27 C          15.2405   39.5577   31.4918 C.ar    1  UNL1        0.0391
     28 C          13.9157   39.2012   31.7347 C.ar    1  UNL1        0.0028
     29 C          13.2273   38.4423   30.8101 C.ar    1  UNL1       -0.0042
     30 C          13.6686   37.4496   27.2413 C.3     1  UNL1        0.0047
     31 C          13.0936   37.2068   28.6382 C.3     1  UNL1        0.0224
     32 C          11.6163   37.6045   28.6578 C.3     1  UNL1        0.0047
@<TRIPOS>BOND
     1    30    31    1
     2    31    32    1
     3    31    24    1
     4    24    29   ar
     5    24    25   ar
     6    25    26   ar
     7    26    27   ar
     8    27    28   ar
     9    27    19    1
    10    28    29   ar
    11    19    23   ar
    12    19    20   ar
    13    20    21   ar
    14    21    22   ar
    15    21    18    1
    16    22    23   ar
    17    18     1    1
    18     1     2    1
    19     2     3    2
    20     2     4    1
    21     4     5    2
    22     5     6    1
    23     6    10   ar
    24     6     7   ar
    25     7     8   ar
    26     8     9   ar
    27     8    11    1
    28     9    10   ar
    29    11    12    1
    30    12    17   ar
    31    12    13   ar
    32    13    14   ar
    33    14    15   ar
    34    15    16   ar
    35    16    17   ar
@<TRIPOS>MOLECULE
ZINC30558905
 29 31 0 0 0
SMALL
GASTEIGER

@<TRIPOS>ATOM
      1 C          22.5929   38.4479   30.0261 C.ar    1  UNL1        0.0761
      2 C          23.3167   38.8776   28.8992 C.ar    1  UNL1        0.0861
      3 C          24.5430   38.2895   28.6093 C.ar    1  UNL1       -0.0130
      4 C          25.0132   37.2859   29.4732 C.ar    1  UNL1        0.0139
      5 C          26.2462   36.6499   29.2483 C.ar    1  UNL1        0.0012
      6 C          26.6698   35.6810   30.1057 C.ar    1  UNL1        0.0001
      7 C          25.8972   35.3128   31.2053 C.ar    1  UNL1        0.0015
      8 C          24.6984   35.9085   31.4532 C.ar    1  UNL1        0.0191
      9 C          24.2254   36.9123   30.5912 C.ar    1  UNL1        0.0806
     10 N          23.0500   37.5114   30.8163 N.ar    1  UNL1       -0.2486
     11 C          25.3462   38.7197   27.4089 C.3     1  UNL1        0.0313
     12 C          22.7770   39.9413   28.0291 C.2     1  UNL1        0.3421
     13 O          22.0079   39.6601   27.1318 O.2     1  UNL1       -0.2449
     14 O          23.1375   41.2237   28.2304 O.3     1  UNL1       -0.4454
     15 C          22.0896   42.1493   28.6221 C.3     1  UNL1        0.2089
     16 C          22.7021   43.5219   28.9079 C.3     1  UNL1        0.0513
     17 C          21.2619   39.0848   30.3327 C.3     1  UNL1        0.1099
     18 S          19.9347   38.0833   29.6174 S.3     1  UNL1       -0.0820
     19 C          17.4817   39.3517   32.4976 C.ar    1  UNL1        0.0779
     20 C          16.3183   39.2954   31.8065 C.ar    1  UNL1        0.0526
     21 S          16.9000   38.7069   30.2228 S.2     1  UNL1       -0.0601
     22 C          18.5853   38.5975   30.6269 C.ar    1  UNL1        0.1364
     23 N          18.5950   38.9930   31.8863 N.ar    1  UNL1       -0.2358
     24 C          17.5039   39.8081   33.9336 C.3     1  UNL1        0.1557
     25 C          17.6587   41.3063   33.9822 C.2     1  UNL1        0.3231
     26 O          16.7240   42.0196   33.7041 O.2     1  UNL1       -0.2497
     27 O          18.8351   41.8483   34.3347 O.3     1  UNL1       -0.4482
     28 C          20.7106   40.4833   35.0757 C.3     1  UNL1        0.0513
     29 C          19.4895   41.2976   35.5080 C.3     1  UNL1        0.2086
@<TRIPOS>BOND
     1    28    29    1
     2    29    27    1
     3    27    25    1
     4    25    26    2
     5    25    24    1
     6    24    19    1
     7    19    23   ar
     8    19    20   ar
     9    20    21   ar
    10    21    22   ar
    11    22    23   ar
    12    22    18    1
    13    18    17    1
    14    17     1    1
    15     1    10   ar
    16     1     2   ar
    17     2     3   ar
    18     2    12    1
    19     3     4   ar
    20     3    11    1
    21     4     9   ar
    22     4     5   ar
    23     5     6   ar
    24     6     7   ar
    25     7     8   ar
    26     8     9   ar
    27     9    10   ar
    28    12    13    2
    29    12    14    1
    30    14    15    1
    31    15    16    1
@<TRIPOS>MOLECULE
ZINC24897126
 32 35 0 0 0
SMALL
GASTEIGER

@<TRIPOS>ATOM
      1 O          20.4712   38.1795   28.2814 O.3     1  UNL1       -0.4416
      2 C          21.4152   38.0123   27.3344 C.2     1  UNL1        0.3609
      3 O          21.1582   37.3886   26.3238 O.2     1  UNL1       -0.2431
      4 N          24.3542   40.0708   26.8165 N.ar    1  UNL1       -0.2165
      5 C          25.2561   39.7465   27.7658 C.ar    1  UNL1        0.2763
      6 O          26.3388   40.3011   27.8115 O.2     1  UNL1       -0.2655
      7 C          24.9011   38.7085   28.7435 C.ar    1  UNL1        0.0593
      8 C          25.7600   38.3022   29.7598 C.ar    1  UNL1        0.0048
      9 C          25.3514   37.3206   30.6374 C.ar    1  UNL1        0.0002
     10 C          24.0969   36.7374   30.5162 C.ar    1  UNL1        0.0001
     11 C          23.2313   37.1264   29.5158 C.ar    1  UNL1        0.0019
     12 C          23.6237   38.1148   28.6199 C.ar    1  UNL1        0.0304
     13 C          22.7606   38.5864   27.5246 C.ar    1  UNL1        0.1764
     14 N          23.2022   39.5228   26.7198 N.ar    1  UNL1       -0.1602
     15 C          24.7445   40.4986   24.4404 C.3     1  UNL1        0.0285
     16 C          24.7132   41.1062   25.8442 C.3     1  UNL1        0.1308
     17 C          20.5741   39.3654   29.1127 C.3     1  UNL1        0.2407
     18 C          20.2270   39.0063   30.5589 C.3     1  UNL1        0.1902
     19 O          18.9070   39.4637   30.8597 O.3     1  UNL1       -0.3435
     20 C          18.3523   38.8969   32.0483 C.3     1  UNL1        0.1599
     21 C          18.9079   39.6123   33.2528 C.ar    1  UNL1        0.0087
     22 C          18.6763   40.9645   33.4212 C.ar    1  UNL1       -0.0016
     23 C          19.1819   41.6198   34.5285 C.ar    1  UNL1       -0.0002
     24 C          19.9277   40.9246   35.4620 C.ar    1  UNL1       -0.0000
     25 C          20.1642   39.5735   35.2906 C.ar    1  UNL1       -0.0002
     26 C          19.6541   38.9173   34.1860 C.ar    1  UNL1       -0.0016
     27 C          16.8528   39.0456   32.0233 C.ar    1  UNL1        0.0087
     28 C          16.1758   39.0206   30.8182 C.ar    1  UNL1       -0.0016
     29 C          14.7998   39.1522   30.7957 C.ar    1  UNL1       -0.0002
     30 C          14.1020   39.3189   31.9772 C.ar    1  UNL1       -0.0000
     31 C          14.7796   39.3498   33.1818 C.ar    1  UNL1       -0.0002
     32 C          16.1549   39.2129   33.2047 C.ar    1  UNL1       -0.0016
@<TRIPOS>BOND
     1    15    16    1
     2    16     4    1
     3     4    14   ar
     4     4     5   ar
     5     5     6    2
     6     5     7   ar
     7     7    12   ar
     8     7     8   ar
     9     8     9   ar
    10     9    10   ar
    11    10    11   ar
    12    11    12   ar
    13    12    13   ar
    14    13    14   ar
    15    13     2    1
    16     2     3    2
    17     2     1    1
    18     1    17    1
    19    17    18    1
    20    18    19    1
    21    19    20    1
    22    20    21    1
    23    20    27    1
    24    21    26   ar
    25    21    22   ar
    26    22    23   ar
    27    23    24   ar
    28    24    25   ar
    29    25    26   ar
    30    27    32   ar
    31    27    28   ar
    32    28    29   ar
    33    29    30   ar
    34    30    31   ar
    35    31    32   ar
@<TRIPOS>MOLECULE
ZINC05132189
 31 31 0 0 0
SMALL
GASTEIGER

@<TRIPOS>ATOM
      1 C          12.0211   37.6056   28.6383 C.2     1  UNL1       -0.0289
      2 C          13.0896   37.7398   29.4200 C.2     1  UNL1       -0.0121
      3 C          14.4326   37.4897   28.8782 C.2     1  UNL1        0.0686
      4 O          15.0766   38.4048   28.4039 O.co2   1  UNL1       -0.5449
      5 O          14.9503   36.2455   28.9074 O.co2   1  UNL1       -0.5449
      6 C          12.1759   37.0803   27.2343 C.3     1  UNL1        0.0301
      7 C          11.9225   38.2116   26.2357 C.3     1  UNL1        0.0264
      8 C          10.3220   36.5380   25.0312 C.3     1  UNL1        0.0260
      9 C          10.6468   37.9391   25.4811 C.2     1  UNL1       -0.0478
     10 C           9.8201   38.9202   25.2162 C.2     1  UNL1       -0.0342
     11 C          10.2166   40.3422   25.5193 C.3     1  UNL1        0.0302
     12 C           9.8528   41.2371   24.3329 C.3     1  UNL1        0.0343
     13 C          10.9542   41.1821   23.3057 C.ar    1  UNL1        0.0189
     14 C          12.1300   41.9669   23.2883 C.ar    1  UNL1        0.0395
     15 C          12.8329   41.5918   22.2046 C.ar    1  UNL1        0.1794
     16 O          12.1446   40.6334   21.5631 O.2     1  UNL1       -0.4477
     17 C          11.0045   40.3809   22.2264 C.ar    1  UNL1        0.1754
     18 C          12.9226   38.1484   30.8609 C.3     1  UNL1        0.0318
     19 C          13.8983   39.2812   31.1861 C.3     1  UNL1        0.0301
     20 C          14.6802   38.9303   32.4258 C.2     1  UNL1       -0.0342
     21 C          15.4224   39.8375   33.0107 C.2     1  UNL1       -0.0478
     22 C          15.3748   41.2682   32.5396 C.3     1  UNL1        0.0260
     23 C          16.3239   39.4505   34.1546 C.3     1  UNL1        0.0264
     24 C          17.7540   39.9024   33.8523 C.3     1  UNL1        0.0302
     25 C          18.2096   39.2917   32.5520 C.2     1  UNL1       -0.0237
     26 C          19.5038   39.2738   32.2427 C.2     1  UNL1        0.0495
     27 C          20.5011   39.9697   33.1329 C.3     1  UNL1        0.0375
     28 C          19.9606   38.5755   31.0331 C.2     1  UNL1        0.3370
     29 O          19.1882   37.8770   30.4064 O.2     1  UNL1       -0.2453
     30 O          21.2362   38.7096   30.6186 O.3     1  UNL1       -0.4416
     31 C          21.4457   38.9852   29.2084 C.3     1  UNL1        0.2559
@<TRIPOS>UNITY_ATOM_ATTR
5 1
charge -1
@<TRIPOS>BOND
     1     8     9    1
     2     9    10    2
     3     9     7    1
     4    10    11    1
     5    11    12    1
     6    12    13    1
     7    13    17   ar
     8    13    14   ar
     9    14    15   ar
    10    15    16   ar
    11    16    17   ar
    12     7     6    1
    13     6     1    1
    14     1     2    2
    15     2    18    1
    16     2     3    1
    17    18    19    1
    18    19    20    1
    19    20    21    2
    20    21    22    1
    21    21    23    1
    22    23    24    1
    23    24    25    1
    24    25    26    2
    25    26    27    1
    26    26    28    1
    27    28    29    2
    28    28    30    1
    29    30    31    1
    30     3     4   ar
    31     3     5   ar
@<TRIPOS>MOLECULE
ZINC23447156
 32 34 0 0 0
SMALL
GASTEIGER

@<TRIPOS>ATOM
      1 C          12.4946   37.4004   28.8687 C.2     1  UNL1        0.3417
      2 O          11.4590   37.9767   29.1429 O.2     1  UNL1       -0.2449
      3 C          14.2707   38.7078   29.8104 C.2     1  UNL1        0.0069
      4 C          13.6223   37.5261   29.7188 C.2     1  UNL1        0.0819
      5 C          16.3988   39.5171   32.7931 C.ar    1  UNL1        0.1754
      6 C          15.2974   39.3957   31.9675 C.ar    1  UNL1        0.0403
      7 C          15.4395   38.8381   30.6916 C.ar    1  UNL1        0.0064
      8 C          16.6977   38.4055   30.2567 C.ar    1  UNL1        0.0403
      9 C          17.7943   38.5301   31.0879 C.ar    1  UNL1        0.1754
     10 C          17.6501   39.0903   32.3549 C.ar    1  UNL1        0.2061
     11 C          15.9733   41.4570   34.1014 C.3     1  UNL1        0.2526
     12 O          16.2618   40.0591   34.0327 O.3     1  UNL1       -0.4683
     13 O          18.7321   39.2164   33.1675 O.3     1  UNL1       -0.4654
     14 C          19.4167   40.4705   33.1463 C.3     1  UNL1        0.2528
     15 O          19.0173   38.1104   30.6661 O.3     1  UNL1       -0.4683
     16 C          19.7100   38.9539   29.7438 C.3     1  UNL1        0.2526
     17 O          12.5701   36.6418   27.7555 O.3     1  UNL1       -0.4404
     18 C          11.3533   36.4145   27.0415 C.3     1  UNL1        0.2354
     19 C          11.2006   37.4574   25.9643 C.ar    1  UNL1        0.0213
     20 C          10.0312   37.5211   25.2279 C.ar    1  UNL1       -0.0007
     21 C           9.8833   38.4775   24.2442 C.ar    1  UNL1       -0.0002
     22 C          10.9201   39.3731   23.9852 C.ar    1  UNL1        0.0006
     23 C          12.0985   39.3004   24.7269 C.ar    1  UNL1       -0.0002
     24 C          12.2324   38.3436   25.7121 C.ar    1  UNL1       -0.0007
     25 C          10.7699   40.3986   22.9260 C.ar    1  UNL1        0.0096
     26 C          11.0210   40.0736   21.5959 C.ar    1  UNL1        0.0007
     27 C          10.8799   41.0317   20.6123 C.ar    1  UNL1        0.0000
     28 C          10.4883   42.3198   20.9383 C.ar    1  UNL1        0.0007
     29 C          10.2343   42.6615   22.2501 C.ar    1  UNL1        0.0103
     30 C          10.3669   41.7049   23.2577 C.ar    1  UNL1        0.0684
     31 C          10.0994   42.0522   24.6209 C.1     1  UNL1        0.1004
     32 N           9.8874   42.3277   25.7024 N.1     1  UNL1       -0.1908
@<TRIPOS>BOND
     1    11    12    1
     2    12     5    1
     3     5    10   ar
     4     5     6   ar
     5     6     7   ar
     6     7     8   ar
     7     7     3    1
     8     8     9   ar
     9     9    10   ar
    10     9    15    1
    11    10    13    1
    12    13    14    1
    13    15    16    1
    14     3     4    2
    15     4     1    1
    16     1     2    2
    17     1    17    1
    18    17    18    1
    19    18    19    1
    20    19    24   ar
    21    19    20   ar
    22    20    21   ar
    23    21    22   ar
    24    22    23   ar
    25    22    25    1
    26    23    24   ar
    27    25    30   ar
    28    25    26   ar
    29    26    27   ar
    30    27    28   ar
    31    28    29   ar
    32    29    30   ar
    33    30    31    1
    34    31    32    3
@<TRIPOS>MOLECULE
ZINC11925973
 30 32 0 0 0
SMALL
GASTEIGER

@<TRIPOS>ATOM
      1 C          22.7384   37.7895   28.8590 C.ar    1  UNL1        0.1231
      2 C          23.1366   36.9472   29.8403 C.ar    1  UNL1        0.1135
      3 N          24.3426   37.3660   30.2776 N.ar    1  UNL1       -0.2440
      4 N          24.6948   38.5066   29.5446 N.ar    1  UNL1       -0.1721
      5 C          23.7352   38.7562   28.6908 C.ar    1  UNL1        0.0950
      6 C          23.7060   39.8927   27.7017 C.3     1  UNL1        0.0384
      7 C          25.0178   40.6756   27.7854 C.3     1  UNL1        0.0060
      8 C          23.5348   39.3340   26.2877 C.3     1  UNL1        0.0060
      9 C          22.5355   40.8225   28.0279 C.3     1  UNL1        0.0060
     10 S          21.2306   37.6867   27.9531 S.O2    1  UNL1       -0.0551
     11 O          21.5545   37.9486   26.5946 O.2     1  UNL1       -0.1841
     12 O          20.5897   36.4876   28.3660 O.2     1  UNL1       -0.1841
     13 N          20.2689   38.9361   28.4598 N.pl3   1  UNL1       -0.5357
     14 C          19.0745   39.1623   32.4421 C.ar    1  UNL1       -0.0223
     15 C          20.3548   39.5423   32.0833 C.ar    1  UNL1       -0.0061
     16 C          20.7542   39.4683   30.7633 C.ar    1  UNL1       -0.0242
     17 C          19.8683   39.0117   29.7957 C.ar    1  UNL1       -0.1123
     18 C          18.5813   38.6358   30.1589 C.ar    1  UNL1       -0.0242
     19 C          18.1900   38.7073   31.4814 C.ar    1  UNL1       -0.0061
     20 C          18.6423   39.2440   33.8835 C.3     1  UNL1        0.0264
     21 C          19.8416   38.9662   34.7921 C.3     1  UNL1        0.0047
     22 C          19.2088   41.3306   35.2939 C.3     1  UNL1        0.0000
     23 C          20.3050   40.2731   35.4388 C.3     1  UNL1        0.0003
     24 C          25.1398   36.7419   31.3364 C.3     1  UNL1        0.1539
     25 C          25.8263   35.5157   30.7918 C.ar    1  UNL1        0.0021
     26 C          26.4664   35.5683   29.5677 C.ar    1  UNL1       -0.0023
     27 C          27.0914   34.4422   29.0656 C.ar    1  UNL1       -0.0003
     28 C          27.0848   33.2662   29.7921 C.ar    1  UNL1       -0.0000
     29 C          26.4455   33.2139   31.0167 C.ar    1  UNL1       -0.0003
     30 C          25.8163   34.3386   31.5165 C.ar    1  UNL1       -0.0023
@<TRIPOS>UNITY_ATOM_ATTR
13 1
charge -1
@<TRIPOS>BOND
     1    22    23    1
     2    23    21    1
     3    21    20    1
     4    20    14    1
     5    14    19   ar
     6    14    15   ar
     7    15    16   ar
     8    16    17   ar
     9    17    18   ar
    10    17    13    1
    11    18    19   ar
    12    13    10    1
    13    10    11    2
    14    10    12    2
    15    10     1    1
    16     1     5   ar
    17     1     2   ar
    18     2     3   ar
    19     3     4   ar
    20     3    24    1
    21     4     5   ar
    22     5     6    1
    23     6     7    1
    24     6     8    1
    25     6     9    1
    26    24    25    1
    27    25    30   ar
    28    25    26   ar
    29    26    27   ar
    30    27    28   ar
    31    28    29   ar
    32    29    30   ar
@<TRIPOS>MOLECULE
ZINC05920532
 30 30 0 0 0
SMALL
GASTEIGER

@<TRIPOS>ATOM
      1 C          18.1694   39.6783   33.2470 C.3     1  UNL1        0.0760
      2 C          19.1495   38.5939   33.7076 C.3     1  UNL1        0.1483
      3 O          19.5053   38.8384   35.0718 O.3     1  UNL1       -0.3267
      4 C          20.0899   40.1240   35.2934 C.3     1  UNL1        0.2940
      5 O          19.1741   41.1415   34.8810 O.3     1  UNL1       -0.3267
      6 C          18.7959   41.0532   33.5038 C.3     1  UNL1        0.1483
      7 C          16.8626   39.5556   34.0332 C.3     1  UNL1        0.1149
      8 C          15.8626   40.5513   33.5043 C.2     1  UNL1        0.3172
      9 O          15.6877   41.5974   34.0829 O.2     1  UNL1       -0.2501
     10 O          15.1663   40.2760   32.3902 O.3     1  UNL1       -0.4485
     11 C          14.3633   39.0662   32.3968 C.3     1  UNL1        0.2083
     12 C          12.0430   39.4569   31.5568 C.3     1  UNL1        0.0038
     13 C          13.4623   39.0453   31.1605 C.3     1  UNL1        0.0439
     14 C          13.4381   37.6338   30.5708 C.3     1  UNL1        0.0037
     15 C          14.1160   37.6423   29.1991 C.3     1  UNL1        0.0001
     16 C          15.2410   38.6793   29.1927 C.3     1  UNL1        0.0000
     17 C          14.6974   36.2572   28.9090 C.3     1  UNL1        0.0000
     18 C          13.0874   37.9991   28.1242 C.3     1  UNL1        0.0000
     19 C          17.8856   39.5154   31.7524 C.3     1  UNL1        0.1149
     20 C          19.0214   38.7665   31.1042 C.2     1  UNL1        0.3172
     21 O          18.9090   37.5876   30.8648 O.2     1  UNL1       -0.2501
     22 O          20.1580   39.4092   30.7930 O.3     1  UNL1       -0.4485
     23 C          21.3419   38.5935   30.5892 C.3     1  UNL1        0.2083
     24 C          21.7527   38.6500   29.1164 C.3     1  UNL1        0.0439
     25 C          21.3489   37.3468   28.4240 C.3     1  UNL1        0.0038
     26 C          23.2685   38.8321   29.0164 C.3     1  UNL1        0.0037
     27 C          23.5800   40.0292   28.1160 C.3     1  UNL1        0.0001
     28 C          24.9312   40.6276   28.5124 C.3     1  UNL1        0.0000
     29 C          23.6338   39.5700   26.6575 C.3     1  UNL1        0.0000
     30 C          22.4866   41.0872   28.2775 C.3     1  UNL1        0.0000
@<TRIPOS>BOND
     1    12    13    1
     2    13    14    1
     3    13    11    1
     4    14    15    1
     5    15    16    1
     6    15    17    1
     7    15    18    1
     8    11    10    1
     9    10     8    1
    10     8     9    2
    11     8     7    1
    12     7     1    1
    13     1     6    1
    14     1     2    1
    15     1    19    1
    16     2     3    1
    17     3     4    1
    18     4     5    1
    19     5     6    1
    20    19    20    1
    21    20    21    2
    22    20    22    1
    23    22    23    1
    24    23    24    1
    25    24    25    1
    26    24    26    1
    27    26    27    1
    28    27    28    1
    29    27    29    1
    30    27    30    1
@<TRIPOS>MOLECULE
ZINC03956775
 31 33 0 0 0
SMALL
GASTEIGER

@<TRIPOS>ATOM
      1 C          23.1175   39.7882   27.6852 C.3     1  UNL1        0.2390
      2 C          24.0658   39.1171   28.7106 C.3     1  UNL1        0.1076
      3 C          23.1023   38.1004   29.3816 C.3     1  UNL1        0.2049
      4 C          22.1831   37.6969   28.2088 C.3     1  UNL1        0.2012
      5 O          22.2577   38.7341   27.2237 O.3     1  UNL1       -0.3253
      6 O          23.8678   40.3290   26.5958 O.3     1  UNL1       -0.3304
      7 C          24.7267   41.4106   26.9620 C.3     1  UNL1        0.1448
      8 C          23.9359   42.4369   27.7758 C.3     1  UNL1        0.0322
      9 C          24.1456   44.3464   29.3733 C.3     1  UNL1        0.0001
     10 C          24.8816   43.1697   28.7295 C.3     1  UNL1        0.0026
     11 C          20.7425   37.5540   28.7040 C.3     1  UNL1        0.2419
     12 O          20.6669   37.9594   30.0962 O.3     1  UNL1       -0.4426
     13 C          19.5178   38.5316   30.5049 C.2     1  UNL1        0.3413
     14 O          18.5319   38.4875   29.7968 O.2     1  UNL1       -0.2449
     15 C          19.4569   39.2128   31.8144 C.ar    1  UNL1        0.0756
     16 C          20.6318   39.4904   32.5158 C.ar    1  UNL1        0.0061
     17 C          20.5679   40.1306   33.7360 C.ar    1  UNL1       -0.0040
     18 C          19.3426   40.4884   34.2697 C.ar    1  UNL1       -0.0218
     19 C          18.1740   40.2121   33.5823 C.ar    1  UNL1       -0.0040
     20 C          18.2237   39.5766   32.3588 C.ar    1  UNL1        0.0061
     21 C          19.2803   41.1829   35.6058 C.3     1  UNL1        0.0310
     22 O          23.8293   36.9499   29.8879 O.3     1  UNL1       -0.4463
     23 C          24.1579   36.9606   31.1943 C.2     1  UNL1        0.3412
     24 O          23.6505   37.7728   31.9416 O.2     1  UNL1       -0.2449
     25 C          25.1353   35.9846   31.7180 C.ar    1  UNL1        0.0756
     26 C          25.3803   35.9049   33.0904 C.ar    1  UNL1        0.0061
     27 C          26.2905   34.9876   33.5731 C.ar    1  UNL1       -0.0040
     28 C          26.9680   34.1551   32.6998 C.ar    1  UNL1       -0.0218
     29 C          26.7342   34.2328   31.3382 C.ar    1  UNL1       -0.0040
     30 C          25.8225   35.1416   30.8425 C.ar    1  UNL1        0.0061
     31 C          27.9654   33.1598   33.2340 C.3     1  UNL1        0.0310
@<TRIPOS>BOND
     1     9    10    1
     2    10     8    1
     3     8     7    1
     4     7     6    1
     5     6     1    1
     6     1     5    1
     7     1     2    1
     8     2     3    1
     9     3     4    1
    10     3    22    1
    11     4     5    1
    12     4    11    1
    13    11    12    1
    14    12    13    1
    15    13    14    2
    16    13    15    1
    17    15    20   ar
    18    15    16   ar
    19    16    17   ar
    20    17    18   ar
    21    18    19   ar
    22    18    21    1
    23    19    20   ar
    24    22    23    1
    25    23    24    2
    26    23    25    1
    27    25    30   ar
    28    25    26   ar
    29    26    27   ar
    30    27    28   ar
    31    28    29   ar
    32    28    31    1
    33    29    30   ar
@<TRIPOS>MOLECULE
ZINC27497650
 28 30 0 0 0
SMALL
GASTEIGER

@<TRIPOS>ATOM
      1 C          22.6143   38.9029   29.3063 C.3     1  UNL1        0.0822
      2 C          23.7803   37.9548   29.4194 C.ar    1  UNL1       -0.0100
      3 C          24.7259   37.8986   28.4123 C.ar    1  UNL1       -0.0033
      4 C          25.7983   37.0333   28.5188 C.ar    1  UNL1        0.0014
      5 C          25.9197   36.2161   29.6274 C.ar    1  UNL1        0.0241
      6 C          24.9744   36.2723   30.6343 C.ar    1  UNL1        0.1426
      7 C          23.9046   37.1417   30.5302 C.ar    1  UNL1        0.0206
      8 N          25.1078   35.4018   31.8240 N.pl3   1  UNL1        0.0577
      9 O          24.8405   35.8367   32.9298 O.2     1  UNL1       -0.1261
     10 O          25.4847   34.2506   31.6971 O.2     1  UNL1       -0.1261
     11 S          21.0683   37.9557   29.2473 S.3     1  UNL1       -0.1031
     12 C          18.3048   39.4128   32.4082 C.ar    1  UNL1        0.0551
     13 C          19.6232   39.6403   32.6530 C.ar    1  UNL1        0.0137
     14 C          20.5597   39.2138   31.7226 C.ar    1  UNL1        0.0137
     15 C          20.1261   38.5934   30.5927 C.ar    1  UNL1        0.0554
     16 S          18.3566   38.5846   30.8278 S.2     1  UNL1       -0.0744
     17 S          16.9064   39.8287   33.3961 S.3     1  UNL1       -0.1072
     18 C          14.5367   39.2132   32.1763 C.3     1  UNL1        0.0129
     19 C          15.6329   40.2805   32.1857 C.3     1  UNL1        0.0627
     20 C          22.7535   39.7321   28.0280 C.3     1  UNL1        0.0847
     21 C          22.3735   41.1622   28.3131 C.2     1  UNL1        0.1742
     22 O          21.2051   41.4853   28.3401 O.2     1  UNL1       -0.2913
     23 C          23.4206   42.1668   28.5590 C.ar    1  UNL1        0.0347
     24 C          24.7703   41.8109   28.4721 C.ar    1  UNL1        0.0028
     25 C          25.7454   42.7593   28.6983 C.ar    1  UNL1        0.0001
     26 C          25.3914   44.0575   29.0224 C.ar    1  UNL1        0.0000
     27 C          24.0579   44.4160   29.1159 C.ar    1  UNL1        0.0001
     28 C          23.0710   43.4808   28.8865 C.ar    1  UNL1        0.0028
@<TRIPOS>BOND
     1    18    19    1
     2    19    17    1
     3    17    12    1
     4    12    16   ar
     5    12    13   ar
     6    13    14   ar
     7    14    15   ar
     8    15    16   ar
     9    15    11    1
    10    11     1    1
    11     1    20    1
    12     1     2    1
    13    20    21    1
    14    21    22    2
    15    21    23    1
    16    23    28   ar
    17    23    24   ar
    18    24    25   ar
    19    25    26   ar
    20    26    27   ar
    21    27    28   ar
    22     2     7   ar
    23     2     3   ar
    24     3     4   ar
    25     4     5   ar
    26     5     6   ar
    27     6     7   ar
    28     6     8    1
    29     8     9    2
    30     8    10    2
@<TRIPOS>MOLECULE
ZINC23888208
 29 31 0 0 0
SMALL
GASTEIGER

@<TRIPOS>ATOM
      1 C          26.8098   36.0523   32.8331 C.ar    1  UNL1        0.0089
      2 C          27.1634   36.7974   31.7756 C.ar    1  UNL1        0.0090
      3 C          26.1486   37.1896   30.8127 C.ar    1  UNL1        0.0802
      4 C          24.8483   36.7344   31.1020 C.ar    1  UNL1        0.1171
      5 S          25.0543   35.8303   32.6150 S.2     1  UNL1       -0.0721
      6 N          23.8153   37.0061   30.3139 N.ar    1  UNL1       -0.2158
      7 C          23.9695   37.7249   29.2204 C.ar    1  UNL1        0.1743
      8 N          25.1955   38.2102   28.8681 N.ar    1  UNL1       -0.2756
      9 C          26.2837   37.9718   29.6227 C.ar    1  UNL1        0.2642
     10 O          27.3718   38.4127   29.2939 O.2     1  UNL1       -0.2669
     11 C          26.8804   34.5747   34.8232 C.3     1  UNL1        0.0056
     12 C          27.6851   35.5355   33.9457 C.3     1  UNL1        0.0330
     13 C          25.3291   39.0061   27.6453 C.3     1  UNL1        0.1136
     14 C          25.2115   40.4924   27.9888 C.3     1  UNL1        0.0567
     15 C          24.3311   41.1880   26.9487 C.3     1  UNL1        0.1443
     16 O          24.3200   42.5950   27.1984 O.3     1  UNL1       -0.3510
     17 C          23.7533   42.9571   28.4592 C.3     1  UNL1        0.1741
     18 S          22.5740   38.0646   28.1995 S.3     1  UNL1       -0.0703
     19 C          21.5751   39.0436   29.3483 C.3     1  UNL1        0.1163
     20 C          21.0987   40.3192   28.6506 C.3     1  UNL1        0.0204
     21 C          20.3812   38.2365   29.7894 C.2     1  UNL1        0.1830
     22 O          20.1357   37.1760   29.2556 O.2     1  UNL1       -0.2904
     23 C          19.5135   38.7357   30.8682 C.ar    1  UNL1        0.0355
     24 C          20.0743   39.3313   32.0025 C.ar    1  UNL1        0.0025
     25 C          19.2543   39.8022   33.0061 C.ar    1  UNL1       -0.0042
     26 C          17.8803   39.6756   32.8985 C.ar    1  UNL1       -0.0218
     27 C          17.3180   39.0818   31.7819 C.ar    1  UNL1       -0.0042
     28 C          18.1242   38.6116   30.7670 C.ar    1  UNL1        0.0025
     29 C          16.9918   40.1869   34.0032 C.3     1  UNL1        0.0310
@<TRIPOS>BOND
     1    11    12    1
     2    12     1    1
     3     1     5   ar
     4     1     2   ar
     5     2     3   ar
     6     3     9   ar
     7     3     4   ar
     8     4     5   ar
     9     4     6   ar
    10     6     7   ar
    11     7     8   ar
    12     7    18    1
    13     8     9   ar
    14     8    13    1
    15     9    10    2
    16    13    14    1
    17    14    15    1
    18    15    16    1
    19    16    17    1
    20    18    19    1
    21    19    20    1
    22    19    21    1
    23    21    22    2
    24    21    23    1
    25    23    28   ar
    26    23    24   ar
    27    24    25   ar
    28    25    26   ar
    29    26    27   ar
    30    26    29    1
    31    27    28   ar
@<TRIPOS>MOLECULE
ZINC11463929
 30 32 0 0 0
SMALL
GASTEIGER

@<TRIPOS>ATOM
      1 C          20.5589   38.6362   30.5351 C.ar    1  UNL1        0.1976
      2 N          20.0146   38.2826   29.3923 N.ar    1  UNL1       -0.1218
      3 N          18.7341   38.3552   29.4707 N.ar    1  UNL1       -0.1279
      4 C          18.3792   38.7597   30.6683 C.ar    1  UNL1        0.1706
      5 N          19.5376   38.9577   31.3874 N.ar    1  UNL1       -0.2690
      6 C          16.9983   38.9692   31.1516 C.ar    1  UNL1        0.0364
      7 C          15.9226   38.8584   30.2686 C.ar    1  UNL1        0.0054
      8 C          14.6357   39.0492   30.7262 C.ar    1  UNL1        0.0297
      9 C          14.4096   39.3557   32.0588 C.ar    1  UNL1        0.1401
     10 C          15.4741   39.4722   32.9385 C.ar    1  UNL1        0.0297
     11 C          16.7651   39.2838   32.4915 C.ar    1  UNL1        0.0054
     12 F          13.1469   39.5413   32.5018 F       1  UNL1       -0.2042
     13 C          19.6471   39.3946   32.7149 C.ar    1  UNL1        0.0672
     14 C          19.7168   40.7523   32.9967 C.ar    1  UNL1        0.0176
     15 C          19.8193   41.1800   34.3060 C.ar    1  UNL1        0.0015
     16 C          19.8637   40.2571   35.3348 C.ar    1  UNL1        0.0001
     17 C          19.7999   38.9040   35.0568 C.ar    1  UNL1        0.0015
     18 C          19.6920   38.4705   33.7499 C.ar    1  UNL1        0.0176
     19 S          22.2818   38.6920   30.8998 S.3     1  UNL1       -0.0634
     20 C          22.9622   38.4260   29.2438 C.3     1  UNL1        0.1743
     21 C          23.2888   39.7563   28.6153 C.2     1  UNL1        0.3290
     22 O          22.4395   40.3606   28.0044 O.2     1  UNL1       -0.2491
     23 O          24.5233   40.2696   28.7342 O.3     1  UNL1       -0.4397
     24 C          24.8028   41.4911   28.0005 C.3     1  UNL1        0.2720
     25 C          25.2774   42.5543   28.9571 C.2     1  UNL1        0.1937
     26 O          26.1747   42.3150   29.7292 O.2     1  UNL1       -0.2922
     27 C          25.0661   44.6800   27.6978 C.3     1  UNL1        0.0075
     28 C          24.6323   43.9164   28.9505 C.3     1  UNL1        0.0553
     29 C          23.1104   43.7598   28.9511 C.3     1  UNL1        0.0075
     30 C          25.0657   44.6919   30.1962 C.3     1  UNL1        0.0075
@<TRIPOS>BOND
     1    27    28    1
     2    28    29    1
     3    28    30    1
     4    28    25    1
     5    25    26    2
     6    25    24    1
     7    24    23    1
     8    23    21    1
     9    21    22    2
    10    21    20    1
    11    20    19    1
    12    19     1    1
    13     1     5   ar
    14     1     2   ar
    15     2     3   ar
    16     3     4   ar
    17     4     5   ar
    18     4     6    1
    19     5    13    1
    20    13    18   ar
    21    13    14   ar
    22    14    15   ar
    23    15    16   ar
    24    16    17   ar
    25    17    18   ar
    26     6    11   ar
    27     6     7   ar
    28     7     8   ar
    29     8     9   ar
    30     9    10   ar
    31     9    12    1
    32    10    11   ar
@<TRIPOS>MOLECULE
ZINC32037652
 30 31 0 0 0
SMALL
GASTEIGER

@<TRIPOS>ATOM
      1 C          25.6670   36.8581   29.4101 C.ar    1  UNL1        0.1067
      2 C          25.1583   36.4653   30.6028 C.ar    1  UNL1        0.0819
      3 N          23.8733   36.8479   30.6543 N.ar    1  UNL1       -0.2347
      4 C          23.5599   37.4657   29.5494 C.ar    1  UNL1        0.1225
      5 N          24.6553   37.4981   28.7415 N.ar    1  UNL1       -0.2840
      6 C          22.2089   38.0470   29.2210 C.3     1  UNL1        0.0719
      7 C          25.9041   35.7224   31.6812 C.3     1  UNL1        0.0423
      8 C          25.3775   36.1502   33.0527 C.3     1  UNL1        0.0064
      9 C          25.6956   34.2175   31.5016 C.3     1  UNL1        0.0064
     10 S          27.3113   36.6000   28.8317 S.3     1  UNL1       -0.0685
     11 C          26.7367   34.2891   24.1723 C.3     1  UNL1        0.0310
     12 C          26.9206   34.1550   25.6621 C.ar    1  UNL1       -0.0217
     13 C          26.9928   32.9000   26.2389 C.ar    1  UNL1       -0.0085
     14 C          27.1616   32.7722   27.6057 C.ar    1  UNL1       -0.0217
     15 C          27.2590   33.8979   28.3993 C.ar    1  UNL1        0.0022
     16 C          27.1874   35.1606   27.8231 C.ar    1  UNL1        0.0302
     17 C          27.0120   35.2853   26.4499 C.ar    1  UNL1        0.0022
     18 C          27.2396   31.4026   28.2295 C.3     1  UNL1        0.0310
     19 C          24.7361   38.0979   27.4073 C.3     1  UNL1        0.2572
     20 O          25.1046   39.4736   27.5251 O.3     1  UNL1       -0.3281
     21 C          24.2194   40.3719   26.8531 C.3     1  UNL1        0.1917
     22 C          24.9450   41.6899   26.5749 C.3     1  UNL1        0.2404
     23 O          26.2217   41.6948   27.2665 O.3     1  UNL1       -0.4457
     24 C          26.4613   42.7223   28.0964 C.2     1  UNL1        0.3175
     25 O          27.3582   43.4958   27.8569 O.2     1  UNL1       -0.2501
     26 C          25.6119   42.9113   29.3267 C.3     1  UNL1        0.1173
     27 C          25.1304   44.3618   29.3963 C.3     1  UNL1        0.0762
     28 C          23.9128   44.5294   28.5243 C.2     1  UNL1        0.1517
     29 O          23.9383   45.2977   27.5930 O.2     1  UNL1       -0.2960
     30 C          22.6634   43.7382   28.8146 C.3     1  UNL1        0.0723
@<TRIPOS>BOND
     1    11    12    1
     2    12    17   ar
     3    12    13   ar
     4    13    14   ar
     5    14    15   ar
     6    14    18    1
     7    15    16   ar
     8    16    17   ar
     9    16    10    1
    10    10     1    1
    11     1     5   ar
    12     1     2   ar
    13     2     3   ar
    14     2     7    1
    15     3     4   ar
    16     4     5   ar
    17     4     6    1
    18     5    19    1
    19    19    20    1
    20    20    21    1
    21    21    22    1
    22    22    23    1
    23    23    24    1
    24    24    25    2
    25    24    26    1
    26    26    27    1
    27    27    28    1
    28    28    29    2
    29    28    30    1
    30     7     8    1
    31     7     9    1
@<TRIPOS>MOLECULE
ZINC16349188
 31 33 0 0 0
SMALL
GASTEIGER

@<TRIPOS>ATOM
      1 C          22.0434   38.3458   26.4490 C.3     1  UNL1        0.2453
      2 N          20.2611   38.1527   29.5591 N.ar    1  UNL1       -0.1841
      3 C          20.9549   38.8724   28.6510 C.ar    1  UNL1        0.2065
      4 S          21.3458   40.5366   28.7433 S.2     1  UNL1       -0.0092
      5 N          21.2823   38.0183   27.6572 N.ar    1  UNL1       -0.1579
      6 N          20.7562   36.7642   27.9901 N.ar    1  UNL1       -0.0392
      7 N          20.1724   36.8410   29.0773 N.ar    1  UNL1       -0.0396
      8 C          18.3422   38.7340   30.9175 C.ar    1  UNL1        0.1562
      9 C          17.8157   39.2032   32.1103 C.ar    1  UNL1        0.0385
     10 C          18.6599   39.5749   33.1398 C.ar    1  UNL1        0.0032
     11 C          20.0307   39.4806   32.9835 C.ar    1  UNL1        0.0018
     12 C          20.5638   39.0140   31.7970 C.ar    1  UNL1        0.0224
     13 C          19.7228   38.6328   30.7616 C.ar    1  UNL1        0.1204
     14 O          17.5132   38.3680   29.9040 O.3     1  UNL1       -0.4739
     15 C          15.2613   37.9057   29.1589 C.3     1  UNL1        0.0512
     16 C          16.1657   38.8396   29.9655 C.3     1  UNL1        0.2056
     17 C          23.8929   39.8236   25.9411 C.3     1  UNL1        0.1698
     18 N          23.4077   38.7567   26.8418 N.4     1  UNL1        0.3031
     19 H          23.3839   39.1146   27.7966 H       1  UNL1        0.2096
     20 C          24.3205   37.5955   26.7870 C.3     1  UNL1        0.1353
     21 C          25.0394   37.4796   28.1063 C.ar    1  UNL1        0.0359
     22 C          24.3267   37.2020   29.2581 C.ar    1  UNL1        0.0047
     23 C          24.9823   37.0889   30.4699 C.ar    1  UNL1        0.0399
     24 C          26.3552   37.2651   30.5339 C.ar    1  UNL1        0.1722
     25 C          27.0718   37.5500   29.3755 C.ar    1  UNL1        0.1723
     26 C          26.4093   37.6563   28.1633 C.ar    1  UNL1        0.0414
     27 O          28.4195   37.7232   29.4332 O.3     1  UNL1       -0.4684
     28 C          29.0039   38.5926   28.4614 C.3     1  UNL1        0.2526
     29 O          27.0010   37.1601   31.7262 O.3     1  UNL1       -0.4724
     30 C          26.3476   36.4128   32.7541 C.3     1  UNL1        0.2057
     31 C          27.1872   36.4617   34.0322 C.3     1  UNL1        0.0512
@<TRIPOS>UNITY_ATOM_ATTR
18 1
charge 1
@<TRIPOS>BOND
     1    15    16    1
     2    16    14    1
     3    14     8    1
     4     8    13   ar
     5     8     9   ar
     6     9    10   ar
     7    10    11   ar
     8    11    12   ar
     9    12    13   ar
    10    13     2    1
    11     2     7   ar
    12     2     3   ar
    13     3     4    2
    14     3     5   ar
    15     5     6   ar
    16     5     1    1
    17     6     7   ar
    18     1    18    1
    19    17    18    1
    20    20    21    1
    21    20    18    1
    22    21    26   ar
    23    21    22   ar
    24    22    23   ar
    25    23    24   ar
    26    24    25   ar
    27    24    29    1
    28    25    26   ar
    29    25    27    1
    30    27    28    1
    31    29    30    1
    32    30    31    1
    33    18    19    1
@<TRIPOS>MOLECULE
ZINC26558397
 31 34 0 0 0
SMALL
GASTEIGER

@<TRIPOS>ATOM
      1 N          23.6652   39.1039   28.4591 N.ar    1  UNL1       -0.2775
      2 C          24.9701   38.7533   28.5358 C.ar    1  UNL1        0.2636
      3 O          25.8138   39.3069   27.8549 O.2     1  UNL1       -0.2669
      4 C          25.3300   37.6791   29.4713 C.ar    1  UNL1        0.0739
      5 C          26.6463   37.2460   29.6244 C.ar    1  UNL1        0.0063
      6 C          26.9267   36.2426   30.5103 C.ar    1  UNL1        0.0003
      7 C          25.9153   35.6521   31.2573 C.ar    1  UNL1        0.0015
      8 C          24.6170   36.0571   31.1270 C.ar    1  UNL1        0.0193
      9 C          24.2981   37.0807   30.2296 C.ar    1  UNL1        0.0880
     10 N          23.0306   37.5116   30.0705 N.ar    1  UNL1       -0.2224
     11 C          22.7328   38.4751   29.2340 C.ar    1  UNL1        0.1738
     12 C          23.2508   40.1693   27.5429 C.3     1  UNL1        0.0903
     13 C          23.8493   39.9128   26.1584 C.3     1  UNL1        0.0246
     14 C          23.7461   41.5172   28.0708 C.3     1  UNL1        0.0227
     15 C          22.5486   42.3696   28.4958 C.3     1  UNL1        0.0019
     16 C          23.0356   43.7550   28.9253 C.3     1  UNL1        0.0001
     17 C          25.0811   44.7471   29.9616 C.3     1  UNL1        0.0000
     18 C          24.5644   43.7944   28.8817 C.3     1  UNL1        0.0000
     19 S          21.0496   38.9779   29.0969 S.3     1  UNL1       -0.0690
     20 C          20.5919   39.0244   30.8475 C.3     1  UNL1        0.1325
     21 C          19.0963   38.8945   30.9792 C.ar    1  UNL1        0.1766
     22 N          18.2773   38.4170   30.0790 N.ar    1  UNL1       -0.1114
     23 N          17.0669   38.4461   30.5070 N.ar    1  UNL1       -0.0226
     24 N          17.0275   38.9389   31.6980 N.ar    1  UNL1       -0.0388
     25 N          18.3535   39.2443   32.0518 N.ar    1  UNL1       -0.1944
     26 C          18.8074   39.7968   33.2585 C.ar    1  UNL1        0.0859
     27 C          18.3915   41.0642   33.6430 C.ar    1  UNL1        0.0192
     28 C          18.8364   41.6038   34.8341 C.ar    1  UNL1        0.0015
     29 C          19.7033   40.8871   35.6383 C.ar    1  UNL1        0.0001
     30 C          20.1235   39.6265   35.2554 C.ar    1  UNL1        0.0015
     31 C          19.6778   39.0796   34.0679 C.ar    1  UNL1        0.0192
@<TRIPOS>BOND
     1    17    18    1
     2    18    16    1
     3    16    15    1
     4    15    14    1
     5    14    12    1
     6    12    13    1
     7    12     1    1
     8     1    11   ar
     9     1     2   ar
    10     2     3    2
    11     2     4   ar
    12     4     9   ar
    13     4     5   ar
    14     5     6   ar
    15     6     7   ar
    16     7     8   ar
    17     8     9   ar
    18     9    10   ar
    19    10    11   ar
    20    11    19    1
    21    19    20    1
    22    20    21    1
    23    21    25   ar
    24    21    22   ar
    25    22    23   ar
    26    23    24   ar
    27    24    25   ar
    28    25    26    1
    29    26    31   ar
    30    26    27   ar
    31    27    28   ar
    32    28    29   ar
    33    29    30   ar
    34    30    31   ar
@<TRIPOS>MOLECULE
ZINC08579683
 30 29 0 0 0
SMALL
GASTEIGER

@<TRIPOS>ATOM
      1 C          22.7969   38.0676   29.3645 C.2     1  UNL1        0.0710
      2 C          23.6026   37.4115   30.2155 C.2     1  UNL1        0.0846
      3 C          25.0661   37.4648   30.0352 C.2     1  UNL1        0.3412
      4 O          25.7062   38.3709   30.5294 O.2     1  UNL1       -0.2449
      5 O          25.6924   36.5081   29.3222 O.3     1  UNL1       -0.4492
      6 C          26.7653   35.7883   29.9846 C.3     1  UNL1        0.1693
      7 C          27.6359   35.0925   28.9363 C.3     1  UNL1        0.0473
      8 C          26.1703   34.7420   30.9293 C.3     1  UNL1        0.0436
      9 C          26.5310   35.0952   32.3736 C.3     1  UNL1        0.0036
     10 C          25.2549   35.4174   33.1537 C.3     1  UNL1        0.0001
     11 C          27.2421   33.9083   33.0266 C.3     1  UNL1        0.0001
     12 C          23.3758   38.8538   28.2580 C.2     1  UNL1        0.3378
     13 O          23.4282   38.3818   27.1403 O.2     1  UNL1       -0.2452
     14 O          23.8462   40.0955   28.4877 O.3     1  UNL1       -0.4494
     15 C          24.6454   40.7023   27.4383 C.3     1  UNL1        0.1693
     16 C          26.1304   40.5287   27.7629 C.3     1  UNL1        0.0473
     17 C          24.3149   42.1932   27.3432 C.3     1  UNL1        0.0436
     18 C          23.9289   42.7192   28.7271 C.3     1  UNL1        0.0036
     19 C          24.9395   43.7792   29.1699 C.3     1  UNL1        0.0001
     20 C          22.5322   43.3406   28.6652 C.3     1  UNL1        0.0001
     21 C          21.3015   38.0010   29.5396 C.3     1  UNL1        0.1425
     22 C          20.7874   39.3459   29.9845 C.2     1  UNL1        0.3216
     23 O          20.7083   40.2547   29.1923 O.2     1  UNL1       -0.2497
     24 O          20.4171   39.5341   31.2609 O.3     1  UNL1       -0.4520
     25 C          19.4501   38.6012   31.8112 C.3     1  UNL1        0.1690
     26 C          18.1039   38.7881   31.1085 C.3     1  UNL1        0.0473
     27 C          19.2841   38.8633   33.3094 C.3     1  UNL1        0.0436
     28 C          18.4964   41.1411   33.9677 C.3     1  UNL1        0.0001
     29 C          19.7241   40.2934   33.6288 C.3     1  UNL1        0.0036
     30 C          20.6791   40.2782   34.8241 C.3     1  UNL1        0.0001
@<TRIPOS>BOND
     1    28    29    1
     2    29    30    1
     3    29    27    1
     4    27    25    1
     5    25    26    1
     6    25    24    1
     7    24    22    1
     8    22    23    2
     9    22    21    1
    10    21     1    1
    11     1     2    2
    12     1    12    1
    13     2     3    1
    14     3     4    2
    15     3     5    1
    16     5     6    1
    17     6     7    1
    18     6     8    1
    19     8     9    1
    20     9    10    1
    21     9    11    1
    22    12    13    2
    23    12    14    1
    24    14    15    1
    25    15    16    1
    26    15    17    1
    27    17    18    1
    28    18    19    1
    29    18    20    1
@<TRIPOS>MOLECULE
ZINC22797427
 31 34 0 0 0
SMALL
GASTEIGER

@<TRIPOS>ATOM
      1 C          26.4017   43.5653   26.0923 C.3     1  UNL1        0.0382
      2 C          26.3134   42.3078   26.9183 C.ar    1  UNL1        0.0092
      3 C          26.0964   41.0397   26.4944 C.ar    1  UNL1        0.0067
      4 C          26.0507   39.9676   27.4820 C.ar    1  UNL1        0.0556
      5 C          25.8413   38.5733   27.2955 C.ar    1  UNL1        0.1354
      6 N          25.8398   37.7728   28.3468 N.ar    1  UNL1       -0.2103
      7 C          26.0285   38.2291   29.5806 C.ar    1  UNL1        0.1818
      8 N          26.2286   39.5195   29.8134 N.ar    1  UNL1       -0.2186
      9 C          26.2441   40.3812   28.8174 C.ar    1  UNL1        0.1148
     10 S          26.4773   42.1340   28.6847 S.2     1  UNL1       -0.0722
     11 C          26.0158   37.2777   30.7185 C.ar    1  UNL1        0.1170
     12 C          24.8293   36.6381   31.0710 C.ar    1  UNL1        0.0223
     13 C          24.8330   35.7524   32.1352 C.ar    1  UNL1        0.0032
     14 C          26.0246   35.5356   32.8120 C.ar    1  UNL1        0.0207
     15 C          27.1658   36.2050   32.4077 C.ar    1  UNL1        0.0989
     16 N          27.1355   37.0387   31.3887 N.ar    1  UNL1       -0.2407
     17 C          25.9093   40.7472   25.0535 C.ar    1  UNL1        0.0003
     18 C          27.0089   40.4391   24.2533 C.ar    1  UNL1        0.0000
     19 C          26.8279   40.1625   22.9136 C.ar    1  UNL1        0.0000
     20 C          25.5600   40.2017   22.3616 C.ar    1  UNL1        0.0000
     21 C          24.4660   40.5119   23.1493 C.ar    1  UNL1        0.0000
     22 C          24.6338   40.7847   24.4916 C.ar    1  UNL1        0.0000
     23 N          25.6413   38.0603   26.0263 N.pl3   1  UNL1       -0.2880
     24 C          26.8069   37.2842   25.5823 C.3     1  UNL1        0.1242
     25 C          26.3921   35.8301   25.3480 C.3     1  UNL1        0.1636
     26 O          27.3713   34.9581   25.9161 O.3     1  UNL1       -0.3493
     27 C          27.0545   34.5094   27.2354 C.3     1  UNL1        0.1742
     28 C          24.4175   37.2493   25.9731 C.3     1  UNL1        0.1242
     29 C          23.1957   38.1701   25.9605 C.3     1  UNL1        0.1636
     30 O          22.0045   37.3813   25.9930 O.3     1  UNL1       -0.3493
     31 C          21.1151   37.7154   27.0605 C.3     1  UNL1        0.1742
@<TRIPOS>BOND
     1     1     2    1
     2     2    10   ar
     3     2     3   ar
     4     3     4   ar
     5     3    17    1
     6     4     9   ar
     7     4     5   ar
     8     5     6   ar
     9     5    23    1
    10     6     7   ar
    11     7     8   ar
    12     7    11    1
    13     8     9   ar
    14     9    10   ar
    15    11    16   ar
    16    11    12   ar
    17    12    13   ar
    18    13    14   ar
    19    14    15   ar
    20    15    16   ar
    21    23    24    1
    22    23    28    1
    23    24    25    1
    24    25    26    1
    25    26    27    1
    26    28    29    1
    27    29    30    1
    28    30    31    1
    29    17    22   ar
    30    17    18   ar
    31    18    19   ar
    32    19    20   ar
    33    20    21   ar
    34    21    22   ar
@<TRIPOS>MOLECULE
ZINC26688477
 33 36 0 0 0
SMALL
GASTEIGER

@<TRIPOS>ATOM
      1 N          22.8083   37.8048   28.6479 N.am    1  UNL1       -0.1980
      2 C          23.3082   37.7740   27.3930 C.2     1  UNL1        0.2189
      3 O          22.7053   37.5438   26.3668 O.2     1  UNL1       -0.2758
      4 C          24.7844   38.0873   27.5372 C.3     1  UNL1        0.0105
      5 N          24.9612   38.2786   28.9870 N.am    1  UNL1       -0.6088
      6 C          23.7534   38.0935   29.5497 C.2     1  UNL1        0.1420
      7 O          23.5442   38.1789   30.7440 O.2     1  UNL1       -0.2965
      8 C          25.6214   36.9334   27.0486 C.ar    1  UNL1       -0.0329
      9 C          26.3124   36.1490   27.9531 C.ar    1  UNL1       -0.0054
     10 C          27.0803   35.0906   27.5049 C.ar    1  UNL1       -0.0004
     11 C          27.1565   34.8159   26.1522 C.ar    1  UNL1       -0.0000
     12 C          26.4647   35.5997   25.2477 C.ar    1  UNL1       -0.0004
     13 C          25.6979   36.6591   25.6958 C.ar    1  UNL1       -0.0054
     14 C          21.4034   37.5541   28.9794 C.3     1  UNL1        0.2166
     15 N          20.7930   38.7889   29.4899 N.4     1  UNL1        0.2990
     16 H          21.3799   39.1389   30.2471 H       1  UNL1        0.2094
     17 C          20.7404   39.8209   28.4458 C.3     1  UNL1        0.1349
     18 C          22.5337   41.4672   28.2592 C.2     1  UNL1        0.0011
     19 C          21.4796   41.0477   28.9143 C.2     1  UNL1        0.0342
     20 C          19.4559   38.5271   30.0391 C.3     1  UNL1        0.1350
     21 C          19.4002   38.9952   31.4705 C.ar    1  UNL1        0.0327
     22 C          20.5660   39.3266   32.1351 C.ar    1  UNL1        0.0014
     23 C          20.5146   39.7601   33.4467 C.ar    1  UNL1       -0.0001
     24 C          19.2981   39.8531   34.0967 C.ar    1  UNL1       -0.0000
     25 C          18.1327   39.5172   33.4335 C.ar    1  UNL1       -0.0001
     26 C          18.1838   39.0877   32.1205 C.ar    1  UNL1        0.0014
     27 C          25.1395   39.3673   26.7780 C.3     1  UNL1        0.0189
     28 C          26.3577   39.9993   27.4008 C.ar    1  UNL1       -0.0230
     29 C          26.2147   41.0544   28.2822 C.ar    1  UNL1       -0.0043
     30 C          27.3319   41.6312   28.8569 C.ar    1  UNL1       -0.0003
     31 C          28.5924   41.1586   28.5431 C.ar    1  UNL1       -0.0000
     32 C          28.7357   40.1068   27.6576 C.ar    1  UNL1       -0.0003
     33 C          27.6183   39.5273   27.0863 C.ar    1  UNL1       -0.0043
@<TRIPOS>UNITY_ATOM_ATTR
5 1
charge -1
15 1
charge 1
@<TRIPOS>BOND
     1    18    19    2
     2    19    17    1
     3    17    15    1
     4    15    20    1
     5    15    14    1
     6    20    21    1
     7    21    26   ar
     8    21    22   ar
     9    22    23   ar
    10    23    24   ar
    11    24    25   ar
    12    25    26   ar
    13    14     1    1
    14     1     6   am
    15     1     2   am
    16     2     3    2
    17     2     4    1
    18     4     5    1
    19     4    27    1
    20     4     8    1
    21     5     6    1
    22     6     7    2
    23    27    28    1
    24    28    33   ar
    25    28    29   ar
    26    29    30   ar
    27    30    31   ar
    28    31    32   ar
    29    32    33   ar
    30     8    13   ar
    31     8     9   ar
    32     9    10   ar
    33    10    11   ar
    34    11    12   ar
    35    12    13   ar
    36    15    16    1
@<TRIPOS>MOLECULE
ZINC01966284
 30 32 0 0 0
SMALL
GASTEIGER

@<TRIPOS>ATOM
      1 C          22.7315   38.3309   29.3815 C.ar    1  UNL1        0.0121
      2 C          23.1593   37.7099   30.5205 C.ar    1  UNL1        0.0050
      3 C          24.5070   37.3789   30.6641 C.ar    1  UNL1        0.0734
      4 C          25.4263   37.6809   29.6438 C.ar    1  UNL1        0.1515
      5 C          24.9747   38.3119   28.4926 C.ar    1  UNL1        0.0741
      6 C          23.6341   38.6345   28.3648 C.ar    1  UNL1        0.1384
      7 O          26.7278   37.3609   29.7846 O.2     1  UNL1       -0.4501
      8 C          27.2207   36.7542   30.8672 C.ar    1  UNL1        0.1826
      9 C          26.4453   36.4057   31.9265 C.ar    1  UNL1        0.0766
     10 C          25.0048   36.7088   31.8791 C.ar    1  UNL1        0.2015
     11 O          24.2603   36.4200   32.8001 O.2     1  UNL1       -0.2864
     12 C          27.0377   35.7325   33.1079 C.ar    1  UNL1        0.0062
     13 C          27.1368   34.3428   33.1442 C.ar    1  UNL1        0.0011
     14 C          27.6927   33.7216   34.2438 C.ar    1  UNL1        0.0114
     15 C          28.1424   34.4758   35.3141 C.ar    1  UNL1        0.0577
     16 C          28.0419   35.8562   35.2850 C.ar    1  UNL1        0.0114
     17 C          27.4919   36.4873   34.1881 C.ar    1  UNL1        0.0011
     18 CL         28.8342   33.6877   36.6976 Cl      1  UNL1       -0.0822
     19 C          21.2763   38.6899   29.2244 C.3     1  UNL1        0.0294
     20 C          20.7905   39.4122   30.4826 C.3     1  UNL1        0.0048
     21 C          19.6150   38.6438   31.0899 C.3     1  UNL1        0.0003
     22 C          19.3077   39.1989   32.4822 C.3     1  UNL1        0.0000
     23 C          20.3221   39.6642   34.7176 C.3     1  UNL1        0.0000
     24 C          20.6177   39.4494   33.2319 C.3     1  UNL1        0.0000
     25 O          23.1954   39.2518   27.2382 O.3     1  UNL1       -0.4640
     26 C          23.9321   40.3931   26.7949 C.3     1  UNL1        0.3141
     27 C          23.7391   41.5255   27.7703 C.2     1  UNL1        0.3621
     28 O          24.6976   42.1230   28.1997 O.2     1  UNL1       -0.2459
     29 O          22.5025   41.8705   28.1621 O.3     1  UNL1       -0.4418
     30 C          22.3419   43.1859   28.7556 C.3     1  UNL1        0.2557
@<TRIPOS>BOND
     1    23    24    1
     2    24    22    1
     3    22    21    1
     4    21    20    1
     5    20    19    1
     6    19     1    1
     7     1     6   ar
     8     1     2   ar
     9     2     3   ar
    10     3    10   ar
    11     3     4   ar
    12     4     5   ar
    13     4     7   ar
    14     5     6   ar
    15     6    25    1
    16    25    26    1
    17    26    27    1
    18    27    28    2
    19    27    29    1
    20    29    30    1
    21     7     8   ar
    22     8     9   ar
    23     9    10   ar
    24     9    12    1
    25    10    11    2
    26    12    17   ar
    27    12    13   ar
    28    13    14   ar
    29    14    15   ar
    30    15    16   ar
    31    15    18    1
    32    16    17   ar
@<TRIPOS>MOLECULE
ZINC22465675
 31 33 0 0 0
SMALL
GASTEIGER

@<TRIPOS>ATOM
      1 C          19.8680   50.9410   25.2419 C.2     1  UNL1        0.3416
      2 O          19.4376   50.2267   24.3588 O.2     1  UNL1       -0.2449
      3 C          19.8468   50.4760   26.6449 C.ar    1  UNL1        0.0787
      4 C          18.6451   50.4191   27.3459 C.ar    1  UNL1        0.0065
      5 C          18.6296   49.9795   28.6564 C.ar    1  UNL1        0.0002
      6 C          19.8047   49.6031   29.2831 C.ar    1  UNL1        0.0001
      7 C          21.0078   49.6578   28.6054 C.ar    1  UNL1        0.0034
      8 C          21.0426   50.0935   27.2826 C.ar    1  UNL1        0.0452
      9 C          22.3271   50.1544   26.5530 C.2     1  UNL1        0.1958
     10 O          22.6223   49.2748   25.7680 O.2     1  UNL1       -0.2866
     11 C          23.2513   51.2844   26.7780 C.ar    1  UNL1        0.0390
     12 C          22.7630   52.5094   27.2394 C.ar    1  UNL1        0.0032
     13 C          23.6326   53.5585   27.4523 C.ar    1  UNL1        0.0001
     14 C          24.9844   53.4033   27.1995 C.ar    1  UNL1        0.0000
     15 C          25.4743   52.1945   26.7368 C.ar    1  UNL1        0.0001
     16 C          24.6172   51.1351   26.5250 C.ar    1  UNL1        0.0032
     17 O          20.3644   52.1570   24.9427 O.3     1  UNL1       -0.4397
     18 C          20.2269   54.1013   23.4829 C.3     1  UNL1        0.0575
     19 C          20.2938   52.5744   23.5538 C.3     1  UNL1        0.2446
     20 C          21.5186   52.0907   22.8210 C.2     1  UNL1        0.2665
     21 O          22.5819   52.0175   23.3996 O.2     1  UNL1       -0.2710
     22 N          21.4323   51.7394   21.5227 N.am    1  UNL1       -0.2679
     23 C          20.1301   51.7301   20.8514 C.3     1  UNL1        0.1203
     24 C          20.1170   52.7753   19.7659 C.2     1  UNL1       -0.0047
     25 C          19.5648   52.5101   18.6080 C.2     1  UNL1       -0.0031
     26 C          22.6406   51.3669   20.7827 C.3     1  UNL1        0.1270
     27 C          22.4472   50.0105   20.1554 C.ar    1  UNL1        0.0273
     28 C          22.5231   49.6554   18.8494 C.ar    1  UNL1        0.0044
     29 C          22.3098   48.3350   18.5004 C.ar    1  UNL1        0.0072
     30 C          22.0207   47.4363   19.4731 C.ar    1  UNL1        0.0352
     31 S          22.0511   48.4558   20.9384 S.2     1  UNL1       -0.0891
@<TRIPOS>BOND
     1    18    19    1
     2    19    20    1
     3    19    17    1
     4    20    21    2
     5    20    22   am
     6    22    23    1
     7    22    26    1
     8    23    24    1
     9    24    25    2
    10    26    27    1
    11    27    31   ar
    12    27    28   ar
    13    28    29   ar
    14    29    30   ar
    15    30    31   ar
    16    17     1    1
    17     1     2    2
    18     1     3    1
    19     3     8   ar
    20     3     4   ar
    21     4     5   ar
    22     5     6   ar
    23     6     7   ar
    24     7     8   ar
    25     8     9    1
    26     9    10    2
    27     9    11    1
    28    11    16   ar
    29    11    12   ar
    30    12    13   ar
    31    13    14   ar
    32    14    15   ar
    33    15    16   ar
@<TRIPOS>MOLECULE
ZINC12777758
 31 33 0 0 0
SMALL
GASTEIGER

@<TRIPOS>ATOM
      1 C          25.2974   41.1208   26.4715 C.ar    1  UNL1        0.1984
      2 N          24.6114   40.0393   26.7959 N.ar    1  UNL1       -0.1904
      3 C          25.0055   38.8258   26.4522 C.ar    1  UNL1        0.2326
      4 C          26.2054   38.6715   25.7083 C.ar    1  UNL1        0.0736
      5 C          26.8445   37.4638   25.2154 C.ar    1  UNL1       -0.0133
      6 C          27.9908   37.5638   24.5264 C.ar    1  UNL1        0.0053
      7 S          28.3023   39.3189   24.4877 S.2     1  UNL1       -0.0725
      8 C          26.8845   39.8713   25.3981 C.ar    1  UNL1        0.1161
      9 N          26.4191   41.0428   25.7821 N.ar    1  UNL1       -0.2186
     10 C          28.8190   36.4561   23.9280 C.3     1  UNL1        0.0379
     11 C          26.2270   36.1139   25.4758 C.3     1  UNL1        0.0314
     12 C          24.7905   42.4726   26.9038 C.3     1  UNL1        0.1721
     13 N          24.4190   42.4076   28.3330 N.4     1  UNL1        0.2817
     14 H          24.3872   41.4302   28.6230 H       1  UNL1        0.2072
     15 C          24.8812   44.4692   29.6167 C.3     1  UNL1        0.0670
     16 C          25.4258   43.1180   29.1494 C.3     1  UNL1        0.1060
     17 C          23.0858   43.0125   28.5362 C.3     1  UNL1        0.1060
     18 C          22.0377   41.8980   28.5532 C.3     1  UNL1        0.0670
     19 O          24.2737   37.7419   26.8048 O.3     1  UNL1       -0.4329
     20 C          23.1926   37.9352   27.6033 C.ar    1  UNL1        0.1808
     21 C          21.9749   38.3003   27.0443 C.ar    1  UNL1        0.0409
     22 C          20.8749   38.4972   27.8499 C.ar    1  UNL1        0.0098
     23 C          20.9827   38.3291   29.2332 C.ar    1  UNL1        0.0789
     24 C          22.2083   37.9615   29.7961 C.ar    1  UNL1        0.0465
     25 C          23.3060   37.7610   28.9820 C.ar    1  UNL1        0.1732
     26 O          24.4985   37.3978   29.5256 O.3     1  UNL1       -0.4683
     27 C          25.2863   38.4353   30.1132 C.3     1  UNL1        0.2526
     28 C          19.8060   38.5394   30.0972 C.2     1  UNL1        0.3414
     29 O          18.6896   38.5231   29.6180 O.2     1  UNL1       -0.2449
     30 O          19.9691   38.7498   31.4181 O.3     1  UNL1       -0.4413
     31 C          18.7649   38.9041   32.2146 C.3     1  UNL1        0.2560
@<TRIPOS>UNITY_ATOM_ATTR
13 1
charge 1
@<TRIPOS>BOND
     1    15    16    1
     2    16    13    1
     3    17    18    1
     4    17    13    1
     5    12     1    1
     6    12    13    1
     7     1     9   ar
     8     1     2   ar
     9     2     3   ar
    10     3     4   ar
    11     3    19    1
    12     4     8   ar
    13     4     5   ar
    14     5     6   ar
    15     5    11    1
    16     6     7   ar
    17     6    10    1
    18     7     8   ar
    19     8     9   ar
    20    19    20    1
    21    20    25   ar
    22    20    21   ar
    23    21    22   ar
    24    22    23   ar
    25    23    24   ar
    26    23    28    1
    27    24    25   ar
    28    25    26    1
    29    26    27    1
    30    28    29    2
    31    28    30    1
    32    30    31    1
    33    13    14    1
@<TRIPOS>MOLECULE
ZINC13100784
 30 32 0 0 0
SMALL
GASTEIGER

@<TRIPOS>ATOM
      1 O          22.9024   38.7293   28.9571 O.3     1  UNL1       -0.4412
      2 C          21.1034   40.2960   28.4682 C.3     1  UNL1        0.0560
      3 C          21.5509   38.8333   28.4367 C.3     1  UNL1        0.2300
      4 C          20.6208   38.0051   29.2853 C.2     1  UNL1        0.2128
      5 O          20.2773   36.9037   28.9110 O.2     1  UNL1       -0.2875
      6 C          20.1303   38.5316   30.5655 C.ar    1  UNL1        0.0385
      7 C          18.7593   38.5216   30.8505 C.ar    1  UNL1        0.0061
      8 C          18.3070   39.0099   32.0492 C.ar    1  UNL1        0.0372
      9 C          19.2062   39.5245   32.9770 C.ar    1  UNL1        0.1443
     10 C          20.5684   39.5416   32.6969 C.ar    1  UNL1        0.0372
     11 C          21.0316   39.0508   31.5032 C.ar    1  UNL1        0.0061
     12 O          18.7532   40.0108   34.1596 O.3     1  UNL1       -0.4236
     13 C          19.7364   40.3778   35.1295 C.3     1  UNL1        0.5087
     14 F          19.2393   41.4126   35.9290 F       1  UNL1       -0.1550
     15 F          20.0358   39.2714   35.9316 F       1  UNL1       -0.1550
     16 C          23.8660   38.3630   28.0888 C.2     1  UNL1        0.3435
     17 O          24.5058   37.3484   28.2838 O.2     1  UNL1       -0.2448
     18 C          24.1435   39.1923   26.9041 C.ar    1  UNL1        0.0994
     19 C          23.6514   38.8252   25.6453 C.ar    1  UNL1        0.0101
     20 C          23.9405   39.6379   24.5643 C.ar    1  UNL1        0.0209
     21 C          24.7005   40.7796   24.7529 C.ar    1  UNL1        0.0994
     22 N          25.1550   41.1089   25.9455 N.ar    1  UNL1       -0.2371
     23 C          24.9081   40.3674   27.0155 C.ar    1  UNL1        0.1169
     24 S          25.5411   40.8559   28.5856 S.3     1  UNL1       -0.0678
     25 C          25.1008   42.5619   28.5757 C.ar    1  UNL1        0.0309
     26 C          23.7628   42.9358   28.6043 C.ar    1  UNL1        0.0065
     27 C          23.4214   44.2739   28.6018 C.ar    1  UNL1        0.0005
     28 C          24.4091   45.2411   28.5597 C.ar    1  UNL1        0.0000
     29 C          25.7416   44.8724   28.5254 C.ar    1  UNL1        0.0005
     30 C          26.0903   43.5363   28.5335 C.ar    1  UNL1        0.0065
@<TRIPOS>BOND
     1     2     3    1
     2     3     4    1
     3     3     1    1
     4     4     5    2
     5     4     6    1
     6     6    11   ar
     7     6     7   ar
     8     7     8   ar
     9     8     9   ar
    10     9    10   ar
    11     9    12    1
    12    10    11   ar
    13    12    13    1
    14    13    14    1
    15    13    15    1
    16     1    16    1
    17    16    17    2
    18    16    18    1
    19    18    23   ar
    20    18    19   ar
    21    19    20   ar
    22    20    21   ar
    23    21    22   ar
    24    22    23   ar
    25    23    24    1
    26    24    25    1
    27    25    30   ar
    28    25    26   ar
    29    26    27   ar
    30    27    28   ar
    31    28    29   ar
    32    29    30   ar
@<TRIPOS>MOLECULE
ZINC04797974
 31 33 0 0 0
SMALL
GASTEIGER

@<TRIPOS>ATOM
      1 N          26.7990   37.3171   28.7650 N.am    1  UNL1       -0.2705
      2 C          26.1276   37.8093   27.7051 C.2     1  UNL1        0.2494
      3 O          26.6062   37.7266   26.5908 O.2     1  UNL1       -0.2699
      4 C          24.8092   38.4500   27.8976 C.ar    1  UNL1        0.0552
      5 C          24.7304   39.7862   28.2942 C.ar    1  UNL1        0.0043
      6 C          23.4972   40.3765   28.4772 C.ar    1  UNL1       -0.0025
      7 C          22.3398   39.6504   28.2576 C.ar    1  UNL1        0.0006
      8 C          22.4109   38.3276   27.8590 C.ar    1  UNL1        0.1390
      9 C          23.6381   37.7236   27.6779 C.ar    1  UNL1        0.0283
     10 C          20.9960   40.3039   28.4530 C.3     1  UNL1        0.0328
     11 N          21.1678   37.5585   27.6269 N.pl3   1  UNL1        0.0574
     12 O          20.7335   37.4299   26.4962 O.2     1  UNL1       -0.1261
     13 O          20.5791   37.0544   28.5665 O.2     1  UNL1       -0.1261
     14 C          26.2514   37.4718   30.1150 C.3     1  UNL1        0.0941
     15 C          25.4309   36.2323   30.4776 C.3     1  UNL1        0.0215
     16 C          23.6680   37.7740   31.3483 C.3     1  UNL1        0.0001
     17 C          24.5275   36.5499   31.6709 C.3     1  UNL1        0.0018
     18 C          28.0763   36.6274   28.5672 C.3     1  UNL1        0.1375
     19 C          27.8642   35.1389   28.6690 C.ar    1  UNL1        0.0576
     20 C          27.0886   34.3933   27.8560 C.ar    1  UNL1        0.0160
     21 C          27.1721   33.0589   28.3005 C.ar    1  UNL1        0.0199
     22 C          27.9956   33.0400   29.3682 C.ar    1  UNL1        0.0760
     23 N          28.4282   34.3127   29.5956 N.ar    1  UNL1       -0.3238
     24 C          29.3444   34.7253   30.6618 C.3     1  UNL1        0.1326
     25 C          28.5546   35.0633   31.8999 C.ar    1  UNL1        0.0026
     26 C          27.7160   34.1195   32.4637 C.ar    1  UNL1       -0.0022
     27 C          26.9947   34.4265   33.6022 C.ar    1  UNL1        0.0020
     28 C          27.1030   35.6810   34.1722 C.ar    1  UNL1        0.0296
     29 C          27.9383   36.6285   33.6055 C.ar    1  UNL1        0.1399
     30 C          28.6645   36.3180   32.4680 C.ar    1  UNL1        0.0272
     31 F          28.0445   37.8552   34.1616 F       1  UNL1       -0.2042
@<TRIPOS>BOND
     1    16    17    1
     2    17    15    1
     3    15    14    1
     4    14     1    1
     5     1    18    1
     6     1     2   am
     7    18    19    1
     8    19    23   ar
     9    19    20   ar
    10    20    21   ar
    11    21    22   ar
    12    22    23   ar
    13    23    24    1
    14    24    25    1
    15    25    30   ar
    16    25    26   ar
    17    26    27   ar
    18    27    28   ar
    19    28    29   ar
    20    29    30   ar
    21    29    31    1
    22     2     3    2
    23     2     4    1
    24     4     9   ar
    25     4     5   ar
    26     5     6   ar
    27     6     7   ar
    28     7     8   ar
    29     7    10    1
    30     8     9   ar
    31     8    11    1
    32    11    12    2
    33    11    13    2
@<TRIPOS>MOLECULE
ZINC06884326
 28 29 0 0 0
SMALL
GASTEIGER

@<TRIPOS>ATOM
      1 C          24.8060   41.2359   27.5385 C.2     1  UNL1        0.0133
      2 C          23.8083   40.3640   27.8310 C.2     1  UNL1        0.0850
      3 C          22.5721   40.5749   28.6123 C.2     1  UNL1        0.2595
      4 O          22.3083   41.6519   29.1137 O.2     1  UNL1       -0.2690
      5 N          21.7672   39.5334   28.7394 N.am    1  UNL1       -0.2441
      6 C          22.0637   38.3415   28.1825 C.2     1  UNL1        0.1212
      7 S          21.1581   36.8894   28.2341 S.2     1  UNL1       -0.0272
      8 S          23.6286   38.6442   27.3778 S.3     1  UNL1       -0.0604
      9 C          25.5861   44.0461   29.8937 C.ar    1  UNL1        0.0001
     10 C          24.8562   45.0796   29.3305 C.ar    1  UNL1        0.0023
     11 C          24.1102   44.8667   28.1855 C.ar    1  UNL1        0.0296
     12 C          24.0916   43.6193   27.5912 C.ar    1  UNL1        0.1401
     13 C          24.8233   42.5673   28.1590 C.ar    1  UNL1        0.0281
     14 C          25.5751   42.7944   29.3177 C.ar    1  UNL1        0.0023
     15 F          23.3671   43.4134   26.4696 F       1  UNL1       -0.2042
     16 C          20.5254   39.6775   29.5030 C.3     1  UNL1        0.0995
     17 C          20.5921   38.8011   30.7554 C.3     1  UNL1        0.0219
     18 C          19.8366   39.4844   31.8970 C.3     1  UNL1        0.0018
     19 C          20.7470   39.5856   33.1225 C.3     1  UNL1        0.0001
     20 C          19.9225   40.0207   34.3357 C.3     1  UNL1        0.0000
     21 C          18.4403   39.7514   34.0680 C.3     1  UNL1        0.0000
     22 C          17.6517   41.0551   34.2082 C.3     1  UNL1        0.0000
     23 C          16.1557   40.7629   34.0759 C.3     1  UNL1        0.0004
     24 C          15.7689   40.7439   32.5958 C.3     1  UNL1        0.0059
     25 C          15.3993   39.3175   32.1835 C.3     1  UNL1        0.0417
     26 C          15.8991   39.0528   30.7867 C.2     1  UNL1        0.0503
     27 O          16.8308   38.3041   30.6102 O.co2   1  UNL1       -0.5492
     28 O          15.3091   39.6488   29.7386 O.co2   1  UNL1       -0.5492
@<TRIPOS>UNITY_ATOM_ATTR
28 1
charge -1
@<TRIPOS>BOND
     1     9    14   ar
     2     9    10   ar
     3    10    11   ar
     4    11    12   ar
     5    12    13   ar
     6    12    15    1
     7    13    14   ar
     8    13     1    1
     9     1     2    2
    10     2     8    1
    11     2     3    1
    12     3     4    2
    13     3     5   am
    14     5     6    1
    15     5    16    1
    16     6     7    2
    17     6     8    1
    18    16    17    1
    19    17    18    1
    20    18    19    1
    21    19    20    1
    22    20    21    1
    23    21    22    1
    24    22    23    1
    25    23    24    1
    26    24    25    1
    27    25    26    1
    28    26    27   ar
    29    26    28   ar
@<TRIPOS>MOLECULE
ZINC08847456
 31 33 0 0 0
SMALL
GASTEIGER

@<TRIPOS>ATOM
      1 C          12.7137   39.3287   31.9161 C.3     1  UNL1        0.0320
      2 C          13.8454   38.9847   30.9823 C.ar    1  UNL1       -0.0030
      3 C          13.5873   38.3042   29.7908 C.ar    1  UNL1        0.0768
      4 C          14.7143   38.0271   28.9832 C.ar    1  UNL1        0.1169
      5 N          14.6059   37.3863   27.8265 N.ar    1  UNL1       -0.2186
      6 C          13.4507   36.9787   27.3756 C.ar    1  UNL1        0.1815
      7 N          12.2991   37.1913   28.0585 N.ar    1  UNL1       -0.2739
      8 C          12.2954   37.8269   29.2466 C.ar    1  UNL1        0.2639
      9 O          11.2557   38.0090   29.8547 O.2     1  UNL1       -0.2669
     10 S          16.0604   38.7193   29.9104 S.2     1  UNL1       -0.0617
     11 C          15.1255   39.3372   31.2995 C.ar    1  UNL1        0.1027
     12 C          15.6108   40.0473   32.4848 C.2     1  UNL1        0.3470
     13 O          15.2901   41.2053   32.6738 O.2     1  UNL1       -0.2443
     14 O          16.4136   39.4171   33.3670 O.3     1  UNL1       -0.4451
     15 C          17.8398   39.4436   33.0960 C.3     1  UNL1        0.2087
     16 C          18.5931   39.8417   34.3668 C.3     1  UNL1        0.0439
     17 C          20.0071   39.2588   34.3253 C.3     1  UNL1        0.0038
     18 C          18.6728   41.3670   34.4557 C.3     1  UNL1        0.0038
     19 C          11.0331   36.7146   27.4962 C.3     1  UNL1        0.1373
     20 C          10.8323   37.3166   26.1293 C.ar    1  UNL1        0.0007
     21 C          10.8151   36.5010   25.0115 C.ar    1  UNL1       -0.0024
     22 C          10.6257   37.0448   23.7534 C.ar    1  UNL1       -0.0001
     23 C          10.4638   38.4068   23.6045 C.ar    1  UNL1        0.0064
     24 C          10.4859   39.2360   24.7274 C.ar    1  UNL1        0.0754
     25 C          10.6719   38.6799   25.9948 C.ar    1  UNL1        0.0040
     26 C          10.3138   40.6953   24.5754 C.2     1  UNL1        0.3411
     27 O          10.2855   41.4091   25.5580 O.2     1  UNL1       -0.2449
     28 O          10.1880   41.2345   23.3474 O.3     1  UNL1       -0.4492
     29 C          11.1539   42.2516   22.9720 C.3     1  UNL1        0.1694
     30 C          12.5291   41.6063   22.7895 C.3     1  UNL1        0.0473
     31 C          10.7201   42.9072   21.6594 C.3     1  UNL1        0.0473
@<TRIPOS>BOND
     1     1     2    1
     2     2    11   ar
     3     2     3   ar
     4     3     8   ar
     5     3     4   ar
     6     4     5   ar
     7     4    10   ar
     8     5     6   ar
     9     6     7   ar
    10     7     8   ar
    11     7    19    1
    12     8     9    2
    13    19    20    1
    14    20    25   ar
    15    20    21   ar
    16    21    22   ar
    17    22    23   ar
    18    23    24   ar
    19    24    25   ar
    20    24    26    1
    21    26    27    2
    22    26    28    1
    23    28    29    1
    24    29    30    1
    25    29    31    1
    26    10    11   ar
    27    11    12    1
    28    12    13    2
    29    12    14    1
    30    14    15    1
    31    15    16    1
    32    16    17    1
    33    16    18    1
@<TRIPOS>MOLECULE
ZINC25553527
 32 34 0 0 0
SMALL
GASTEIGER

@<TRIPOS>ATOM
      1 C          26.8710   36.0383   29.7420 C.3     1  UNL1        0.0003
      2 C          27.6179   36.2873   28.4054 C.3     1  UNL1        0.0003
      3 C          26.7288   37.2630   27.5835 C.3     1  UNL1        0.0040
      4 C          25.3337   37.0200   28.1648 C.3     1  UNL1        0.0180
      5 C          25.6506   36.9430   29.6858 C.3     1  UNL1        0.0034
      6 C          24.3951   36.5069   30.4019 C.3     1  UNL1        0.0006
      7 C          23.3691   37.6488   30.2822 C.3     1  UNL1        0.0040
      8 C          23.0779   37.9839   28.8229 C.3     1  UNL1        0.0183
      9 C          24.3481   38.1488   28.0294 C.2     1  UNL1       -0.0491
     10 C          24.6219   39.1797   27.2919 C.2     1  UNL1       -0.0346
     11 C          23.6890   40.3554   27.1806 C.3     1  UNL1        0.0258
     12 C          22.8972   40.4688   28.4860 C.3     1  UNL1        0.0105
     13 C          22.1352   39.1632   28.7060 C.3     1  UNL1        0.0093
     14 C          21.3125   39.2749   29.9912 C.3     1  UNL1        0.0007
     15 C          26.0417   38.3422   30.1654 C.3     1  UNL1        0.0003
     16 C          26.4424   34.5735   29.8492 C.3     1  UNL1        0.0000
     17 C          27.0482   33.9559   31.1112 C.3     1  UNL1        0.0000
     18 C          26.9341   33.8069   28.6197 C.3     1  UNL1        0.0000
     19 C          27.3158   32.3822   29.0261 C.3     1  UNL1        0.0000
     20 C          27.8705   31.6365   27.8106 C.3     1  UNL1        0.0000
     21 C          27.3405   32.2839   26.5296 C.3     1  UNL1        0.0000
     22 C          26.5684   29.9455   29.1098 C.3     1  UNL1        0.0000
     23 C          27.4267   30.1733   27.8638 C.3     1  UNL1        0.0000
     24 C          26.6089   29.8425   26.6137 C.3     1  UNL1        0.0000
     25 C          21.1896   38.9326   27.5257 C.3     1  UNL1        0.0420
     26 C          21.1272   37.4598   27.2123 C.2     1  UNL1        0.0503
     27 O          21.6748   37.0285   26.2254 O.co2   1  UNL1       -0.5492
     28 O          20.4633   36.6273   28.0295 O.co2   1  UNL1       -0.5492
     29 C          21.9087   41.6327   28.3908 C.3     1  UNL1        0.0421
     30 C          22.6207   42.9234   28.7042 C.2     1  UNL1        0.0503
     31 O          21.9902   43.9469   28.8260 O.co2   1  UNL1       -0.5492
     32 O          23.9552   42.9361   28.8479 O.co2   1  UNL1       -0.5492
@<TRIPOS>UNITY_ATOM_ATTR
28 1
charge -1
32 1
charge -1
@<TRIPOS>BOND
     1    22    23    1
     2    23    24    1
     3    23    20    1
     4    20    21    1
     5    20    19    1
     6    19    18    1
     7    18    16    1
     8    16    17    1
     9    16     1    1
    10     1     5    1
    11     1     2    1
    12     2     3    1
    13     3     4    1
    14     4     9    1
    15     4     5    1
    16     5     6    1
    17     5    15    1
    18     6     7    1
    19     7     8    1
    20     8    13    1
    21     8     9    1
    22     9    10    2
    23    10    11    1
    24    11    12    1
    25    12    13    1
    26    12    29    1
    27    13    14    1
    28    13    25    1
    29    25    26    1
    30    26    27   ar
    31    26    28   ar
    32    29    30    1
    33    30    31   ar
    34    30    32   ar
@<TRIPOS>MOLECULE
ZINC22297528
 31 33 0 0 0
SMALL
GASTEIGER

@<TRIPOS>ATOM
      1 N          18.5199   39.5276   32.2647 N.ar    1  UNL1       -0.2757
      2 C          17.2528   39.7143   32.7009 C.ar    1  UNL1        0.2637
      3 O          17.0264   40.2516   33.7693 O.2     1  UNL1       -0.2669
      4 C          16.1584   39.2446   31.8365 C.ar    1  UNL1        0.0739
      5 C          14.8211   39.3931   32.2025 C.ar    1  UNL1        0.0065
      6 C          13.8347   38.9431   31.3728 C.ar    1  UNL1        0.0067
      7 C          14.1525   38.3323   30.1526 C.ar    1  UNL1        0.0771
      8 C          15.4780   38.1739   29.7681 C.ar    1  UNL1        0.0258
      9 C          16.4966   38.6304   30.6096 C.ar    1  UNL1        0.0882
     10 N          17.8018   38.4969   30.2759 N.ar    1  UNL1       -0.2224
     11 C          18.7579   38.9283   31.0611 C.ar    1  UNL1        0.1739
     12 C          13.0687   37.8519   29.2676 C.2     1  UNL1        0.3414
     13 O          11.9237   37.8216   29.6711 O.2     1  UNL1       -0.2449
     14 O          13.3517   37.4480   28.0142 O.3     1  UNL1       -0.4413
     15 C          12.2749   37.5108   27.0424 C.3     1  UNL1        0.2560
     16 C          19.6454   39.9776   33.0876 C.3     1  UNL1        0.1110
     17 C          19.9455   38.9275   34.1591 C.3     1  UNL1        0.0247
     18 C          20.0131   41.1332   35.3306 C.3     1  UNL1        0.0001
     19 C          20.1620   39.6206   35.5058 C.3     1  UNL1        0.0020
     20 S          20.4290   38.7191   30.5427 S.3     1  UNL1       -0.0689
     21 C          20.2115   38.7838   28.7470 C.3     1  UNL1        0.1340
     22 C          20.9468   37.6328   28.1102 C.2     1  UNL1        0.1866
     23 O          20.4513   36.5259   28.1038 O.2     1  UNL1       -0.2903
     24 C          22.2644   37.8517   27.4967 C.ar    1  UNL1        0.0653
     25 C          22.3596   38.2671   26.1637 C.ar    1  UNL1        0.0348
     26 C          23.6002   38.4750   25.5967 C.ar    1  UNL1        0.1404
     27 C          24.7517   38.2639   26.3408 C.ar    1  UNL1        0.0319
     28 C          24.6673   37.8487   27.6563 C.ar    1  UNL1        0.0320
     29 C          23.4321   37.6402   28.2414 C.ar    1  UNL1        0.1430
     30 F          23.3513   37.2343   29.5274 F       1  UNL1       -0.2041
     31 F          23.6939   38.8806   24.3114 F       1  UNL1       -0.2042
@<TRIPOS>BOND
     1    18    19    1
     2    19    17    1
     3    17    16    1
     4    16     1    1
     5     1    11   ar
     6     1     2   ar
     7     2     3    2
     8     2     4   ar
     9     4     9   ar
    10     4     5   ar
    11     5     6   ar
    12     6     7   ar
    13     7     8   ar
    14     7    12    1
    15     8     9   ar
    16     9    10   ar
    17    10    11   ar
    18    11    20    1
    19    20    21    1
    20    21    22    1
    21    22    23    2
    22    22    24    1
    23    24    29   ar
    24    24    25   ar
    25    25    26   ar
    26    26    27   ar
    27    26    31    1
    28    27    28   ar
    29    28    29   ar
    30    29    30    1
    31    12    13    2
    32    12    14    1
    33    14    15    1
@<TRIPOS>MOLECULE
ZINC11251285
 32 33 0 0 0
SMALL
GASTEIGER

@<TRIPOS>ATOM
      1 C          22.9501   40.7576   27.7667 C.2     1  UNL1        0.0614
      2 C          22.0483   39.8568   28.3056 C.ar    1  UNL1        0.0961
      3 N          21.8583   38.5365   27.9743 N.ar    1  UNL1       -0.2807
      4 C          20.9492   37.8067   28.5984 C.ar    1  UNL1        0.2676
      5 O          20.7734   36.6349   28.3217 O.2     1  UNL1       -0.2664
      6 C          20.1534   38.4818   29.6437 C.ar    1  UNL1        0.0869
      7 C          19.1646   37.9852   30.4287 C.2     1  UNL1        0.0113
      8 S          20.8495   40.1272   29.6007 S.2     1  UNL1       -0.0648
      9 C          18.6296   38.7916   31.5353 C.ar    1  UNL1        0.0013
     10 C          17.2781   39.1586   31.5477 C.ar    1  UNL1        0.0001
     11 C          16.7757   39.9153   32.5861 C.ar    1  UNL1        0.0007
     12 C          17.5996   40.3161   33.6201 C.ar    1  UNL1        0.0103
     13 C          18.9503   39.9571   33.6224 C.ar    1  UNL1        0.0684
     14 C          19.4662   39.1895   32.5807 C.ar    1  UNL1        0.0103
     15 C          19.8014   40.3740   34.6960 C.1     1  UNL1        0.1004
     16 N          20.4766   40.7046   35.5476 N.1     1  UNL1       -0.1908
     17 C          22.9932   42.0641   28.2383 C.2     1  UNL1        0.1743
     18 O          21.9616   42.6396   28.5314 O.2     1  UNL1       -0.2913
     19 C          24.1475   43.9869   29.2961 C.3     1  UNL1        0.0077
     20 C          24.3172   42.7682   28.3869 C.3     1  UNL1        0.0556
     21 C          25.3381   41.8099   29.0038 C.3     1  UNL1        0.0077
     22 C          24.8104   43.2225   27.0117 C.3     1  UNL1        0.0077
     23 C          22.6775   37.9286   26.9227 C.3     1  UNL1        0.1946
     24 C          24.0796   37.7213   27.4350 C.2     1  UNL1        0.2493
     25 O          24.2589   37.2341   28.5311 O.2     1  UNL1       -0.2727
     26 N          25.1342   38.0773   26.6750 N.am    1  UNL1       -0.2698
     27 C          26.4971   37.8758   27.1729 C.3     1  UNL1        0.1202
     28 C          26.9341   36.4629   26.8830 C.2     1  UNL1       -0.0047
     29 C          27.6244   35.7949   27.7737 C.2     1  UNL1       -0.0031
     30 C          24.9175   38.6658   25.3510 C.3     1  UNL1        0.1202
     31 C          26.1241   39.4795   24.9594 C.2     1  UNL1       -0.0047
     32 C          25.9774   40.7197   24.5641 C.2     1  UNL1       -0.0031
@<TRIPOS>BOND
     1    19    20    1
     2    20    21    1
     3    20    22    1
     4    20    17    1
     5    17    18    2
     6    17     1    1
     7     1     2    2
     8     2     8   ar
     9     2     3   ar
    10     3     4   ar
    11     3    23    1
    12     4     5    2
    13     4     6   ar
    14     6     7    2
    15     6     8   ar
    16     7     9    1
    17     9    14   ar
    18     9    10   ar
    19    10    11   ar
    20    11    12   ar
    21    12    13   ar
    22    13    14   ar
    23    13    15    1
    24    15    16    3
    25    23    24    1
    26    24    25    2
    27    24    26   am
    28    26    27    1
    29    26    30    1
    30    27    28    1
    31    28    29    2
    32    30    31    1
    33    31    32    2
@<TRIPOS>MOLECULE
ZINC23511380
 32 34 0 0 0
SMALL
GASTEIGER

@<TRIPOS>ATOM
      1 C          17.8331   38.7547   30.7737 C.2     1  UNL1        0.0091
      2 O          17.3269   38.8425   31.8767 O.co2   1  UNL1       -0.8592
      3 N          17.0585   38.5401   29.6918 N.2     1  UNL1       -0.2367
      4 C          15.6824   38.4193   29.8360 C.ar    1  UNL1        0.1929
      5 N          14.8969   38.9402   30.7588 N.ar    1  UNL1       -0.2193
      6 C          13.5960   38.7240   30.7497 C.ar    1  UNL1        0.1036
      7 C          13.0765   37.9498   29.7659 C.ar    1  UNL1        0.0336
      8 S          14.5536   37.5500   28.8432 S.2     1  UNL1       -0.0512
      9 C          11.6470   37.5439   29.5155 C.3     1  UNL1        0.0610
     10 C          11.3881   37.5065   28.0314 C.ar    1  UNL1       -0.0142
     11 C          11.4121   36.3000   27.3562 C.ar    1  UNL1       -0.0037
     12 C          11.1693   36.2616   25.9957 C.ar    1  UNL1        0.0028
     13 C          10.9134   37.4307   25.3052 C.ar    1  UNL1        0.0369
     14 C          10.8944   38.6429   25.9793 C.ar    1  UNL1        0.1384
     15 C          11.1327   38.6780   27.3457 C.ar    1  UNL1        0.0330
     16 O          10.6433   39.7942   25.3023 O.3     1  UNL1       -0.4714
     17 C          11.3947   40.0218   24.1084 C.3     1  UNL1        0.2525
     18 C          19.8726   38.6930   29.3844 C.2     1  UNL1        0.0117
     19 C          19.2885   38.8824   30.6214 C.2     1  UNL1        0.0709
     20 C          24.6806   37.1428   29.3922 C.3     1  UNL1        0.0500
     21 C          23.4268   37.9701   29.2703 C.ar    1  UNL1        0.0372
     22 C          22.1802   37.5341   29.5159 C.ar    1  UNL1        0.0139
     23 C          21.2857   38.6724   29.2629 C.ar    1  UNL1        0.0134
     24 C          22.1067   39.7211   28.8822 C.ar    1  UNL1        0.0372
     25 N          23.3789   39.2824   28.8965 N.ar    1  UNL1       -0.3314
     26 C          21.6542   41.1110   28.5158 C.3     1  UNL1        0.0500
     27 C          24.5473   40.0966   28.5533 C.3     1  UNL1        0.1374
     28 C          24.8633   39.9334   27.0651 C.3     1  UNL1        0.1666
     29 O          24.3628   41.0619   26.3454 O.3     1  UNL1       -0.3490
     30 C          24.8222   42.3197   26.8442 C.3     1  UNL1        0.1742
     31 C          20.1017   39.2032   31.7556 C.1     1  UNL1        0.1007
     32 N          20.7469   39.4578   32.6553 N.1     1  UNL1       -0.1908
@<TRIPOS>UNITY_ATOM_ATTR
2 1
charge -1
@<TRIPOS>BOND
     1    20    21    1
     2    21    25   ar
     3    21    22   ar
     4    22    23   ar
     5    23    24   ar
     6    23    18    1
     7    24    25   ar
     8    24    26    1
     9    25    27    1
    10    27    28    1
    11    28    29    1
    12    29    30    1
    13    18    19    2
    14    19    31    1
    15    19     1    1
    16    31    32    3
    17     1     2    1
    18     1     3    2
    19     3     4    1
    20     4     8   ar
    21     4     5   ar
    22     5     6   ar
    23     6     7   ar
    24     7     8   ar
    25     7     9    1
    26     9    10    1
    27    10    15   ar
    28    10    11   ar
    29    11    12   ar
    30    12    13   ar
    31    13    14   ar
    32    14    15   ar
    33    14    16    1
    34    16    17    1
@<TRIPOS>MOLECULE
ZINC13097885
 30 32 0 0 0
SMALL
GASTEIGER

@<TRIPOS>ATOM
      1 N          20.7393   38.8626   29.5678 N.am    1  UNL1       -0.2352
      2 C          21.0746   37.7536   28.8791 C.2     1  UNL1        0.2550
      3 O          20.3297   36.7930   28.8738 O.2     1  UNL1       -0.2695
      4 C          19.5302   38.9210   30.2395 C.ar    1  UNL1        0.1690
      5 N          18.3152   38.7847   29.7613 N.ar    1  UNL1       -0.2237
      6 C          17.2151   38.8659   30.5406 C.ar    1  UNL1        0.0893
      7 C          15.8605   38.7383   30.1551 C.ar    1  UNL1        0.0197
      8 C          14.8558   38.8481   31.0805 C.ar    1  UNL1        0.0016
      9 C          15.1269   39.0871   32.4200 C.ar    1  UNL1        0.0006
     10 C          16.4403   39.2173   32.8325 C.ar    1  UNL1        0.0081
     11 C          17.4532   39.1084   31.9126 C.ar    1  UNL1        0.0497
     12 S          19.2266   39.1935   31.9795 S.2     1  UNL1       -0.0512
     13 C          22.3498   37.7035   28.1355 C.ar    1  UNL1        0.0646
     14 C          22.3603   37.8674   26.7487 C.ar    1  UNL1        0.0071
     15 C          23.5544   37.8200   26.0606 C.ar    1  UNL1        0.0243
     16 C          24.7418   37.6109   26.7408 C.ar    1  UNL1        0.1437
     17 C          24.7403   37.4477   28.1139 C.ar    1  UNL1        0.0356
     18 C          23.5522   37.4976   28.8169 C.ar    1  UNL1        0.0637
     19 CL         23.5522   37.2996   30.5416 Cl      1  UNL1       -0.0820
     20 N          26.0193   37.5623   25.9948 N.pl3   1  UNL1        0.0577
     21 O          26.6538   36.5240   25.9410 O.2     1  UNL1       -0.1261
     22 O          26.4358   38.5604   25.4347 O.2     1  UNL1       -0.1261
     23 C          21.6542   40.0061   29.6056 C.3     1  UNL1        0.1004
     24 C          21.2782   40.9969   28.5022 C.3     1  UNL1        0.0220
     25 C          22.4228   41.9914   28.2980 C.3     1  UNL1        0.0018
     26 C          23.7023   41.2309   27.9438 C.3     1  UNL1        0.0001
     27 C          24.9086   41.9539   28.5462 C.3     1  UNL1        0.0000
     28 C          26.1928   41.4265   27.9030 C.3     1  UNL1        0.0000
     29 C          25.1048   44.2261   29.5666 C.3     1  UNL1        0.0000
     30 C          24.7863   43.4562   28.2834 C.3     1  UNL1        0.0000
@<TRIPOS>BOND
     1    29    30    1
     2    30    27    1
     3    27    28    1
     4    27    26    1
     5    26    25    1
     6    25    24    1
     7    24    23    1
     8    23     1    1
     9     1     4    1
    10     1     2   am
    11     4    12   ar
    12     4     5   ar
    13     5     6   ar
    14     6    11   ar
    15     6     7   ar
    16     7     8   ar
    17     8     9   ar
    18     9    10   ar
    19    10    11   ar
    20    11    12   ar
    21     2     3    2
    22     2    13    1
    23    13    18   ar
    24    13    14   ar
    25    14    15   ar
    26    15    16   ar
    27    16    17   ar
    28    16    20    1
    29    17    18   ar
    30    18    19    1
    31    20    21    2
    32    20    22    2
@<TRIPOS>MOLECULE
ZINC25491883
 32 34 0 0 0
SMALL
GASTEIGER

@<TRIPOS>ATOM
      1 C          20.0451   39.0463   30.8368 C.ar    1  UNL1        0.1650
      2 N          18.7436   39.0965   30.7760 N.ar    1  UNL1       -0.1452
      3 N          18.2492   39.1345   32.0869 N.ar    1  UNL1       -0.1773
      4 C          19.3081   39.0948   32.9215 C.ar    1  UNL1        0.1850
      5 S          19.2476   39.1104   34.6323 S.2     1  UNL1       -0.0110
      6 N          20.4225   39.0402   32.1652 N.ar    1  UNL1       -0.2893
      7 C          21.7979   38.9835   32.6664 C.3     1  UNL1        0.1339
      8 C          22.6826   38.9052   27.5069 C.ar    1  UNL1        0.0478
      9 C          22.2776   40.1326   28.0199 C.ar    1  UNL1        0.0146
     10 C          21.4223   40.1814   29.0992 C.ar    1  UNL1        0.0043
     11 C          20.9628   38.9972   29.6779 C.ar    1  UNL1        0.0360
     12 C          21.3756   37.7666   29.1645 C.ar    1  UNL1        0.0043
     13 C          22.2264   37.7239   28.0814 C.ar    1  UNL1        0.0146
     14 N          23.5486   38.8589   26.4141 N.pl3   1  UNL1       -0.3075
     15 C          25.2657   37.1627   26.0193 C.3     1  UNL1        0.0232
     16 C          23.8197   37.5825   25.7480 C.3     1  UNL1        0.0908
     17 C          24.1867   40.0866   25.9327 C.3     1  UNL1        0.0908
     18 C          24.1048   40.1391   24.4058 C.3     1  UNL1        0.0232
     19 C          16.8392   39.1991   32.4792 C.3     1  UNL1        0.2437
     20 N          16.4702   40.5947   32.7515 N.4     1  UNL1        0.3031
     21 C          15.9244   40.7399   34.1077 C.3     1  UNL1        0.1698
     22 H          17.3170   41.1602   32.6921 H       1  UNL1        0.2096
     23 C          15.5224   41.0944   31.7465 C.3     1  UNL1        0.1353
     24 C          14.6215   39.9707   31.3032 C.ar    1  UNL1        0.0344
     25 C          13.4366   39.7292   31.9733 C.ar    1  UNL1        0.0015
     26 C          12.6105   38.6983   31.5669 C.ar    1  UNL1        0.0016
     27 C          12.9691   37.9086   30.4903 C.ar    1  UNL1        0.0241
     28 C          14.1561   38.1466   29.8236 C.ar    1  UNL1        0.1428
     29 C          14.9800   39.1812   30.2268 C.ar    1  UNL1        0.0255
     30 N          14.5429   37.2974   28.6747 N.pl3   1  UNL1        0.0577
     31 O          14.0874   37.5252   27.5684 O.2     1  UNL1       -0.1261
     32 O          15.3167   36.3705   28.8357 O.2     1  UNL1       -0.1261
@<TRIPOS>UNITY_ATOM_ATTR
20 1
charge 1
@<TRIPOS>BOND
     1    15    16    1
     2    16    14    1
     3    14    17    1
     4    14     8    1
     5    17    18    1
     6     8    13   ar
     7     8     9   ar
     8     9    10   ar
     9    10    11   ar
    10    11    12   ar
    11    11     1    1
    12    12    13   ar
    13     1     6   ar
    14     1     2   ar
    15     2     3   ar
    16     3     4   ar
    17     3    19    1
    18     4     5    2
    19     4     6   ar
    20     6     7    1
    21    19    20    1
    22    20    21    1
    23    20    23    1
    24    23    24    1
    25    24    29   ar
    26    24    25   ar
    27    25    26   ar
    28    26    27   ar
    29    27    28   ar
    30    28    29   ar
    31    28    30    1
    32    30    31    2
    33    30    32    2
    34    20    22    1
@<TRIPOS>MOLECULE
ZINC21434566
 32 34 0 0 0
SMALL
GASTEIGER

@<TRIPOS>ATOM
      1 N          15.2756   38.5850   29.1839 N.am    1  UNL1       -0.2759
      2 C          14.8676   37.3311   28.9058 C.2     1  UNL1        0.2668
      3 O          15.2552   36.4029   29.5833 O.2     1  UNL1       -0.2709
      4 H          14.9609   39.3385   28.6339 H       1  UNL1        0.1554
      5 C          15.8419   39.3139   31.5056 C.ar    1  UNL1        0.0915
      6 C          16.9412   39.4591   32.4452 C.ar    1  UNL1       -0.0122
      7 C          18.1512   39.0838   31.9774 C.ar    1  UNL1        0.0047
      8 S          17.8485   38.5457   30.3182 S.2     1  UNL1       -0.0767
      9 C          16.1384   38.8139   30.2443 C.ar    1  UNL1        0.0864
     10 C          19.4550   39.1194   32.7137 C.3     1  UNL1        0.0327
     11 C          19.1604   39.2944   34.2105 C.3     1  UNL1        0.0052
     12 C          18.1486   40.4307   34.3845 C.3     1  UNL1        0.0050
     13 C          16.7789   39.9918   33.8636 C.3     1  UNL1        0.0268
     14 C          20.4538   39.6416   34.9505 C.3     1  UNL1        0.0004
     15 C          14.4734   39.6815   31.8747 C.2     1  UNL1        0.3426
     16 O          14.2220   40.8198   32.2219 O.2     1  UNL1       -0.2448
     17 O          13.4915   38.7577   31.8298 O.3     1  UNL1       -0.4454
     18 C          11.2515   38.0527   31.1852 C.3     1  UNL1        0.0513
     19 C          12.1486   39.2360   31.5540 C.3     1  UNL1        0.2089
     20 C          13.9296   37.0821   27.7529 C.3     1  UNL1        0.2447
     21 C          13.9589   35.5978   27.3829 C.3     1  UNL1        0.0575
     22 O          12.6021   37.4528   28.1300 O.3     1  UNL1       -0.4397
     23 C          11.6367   37.3049   27.1988 C.2     1  UNL1        0.3418
     24 O          10.8729   36.3598   27.2592 O.2     1  UNL1       -0.2449
     25 C          11.5127   38.2496   26.1515 C.2     1  UNL1        0.0820
     26 C          10.8069   37.9390   25.0413 C.2     1  UNL1        0.0098
     27 C          10.6782   38.9191   23.9545 C.ar    1  UNL1        0.0398
     28 C          10.4631   38.6330   22.5860 C.ar    1  UNL1        0.1216
     29 N          10.4019   39.7653   21.9415 N.ar    1  UNL1       -0.1676
     30 N          10.5820   40.8153   22.8485 N.ar    1  UNL1       -0.2473
     31 C          10.7503   40.2951   24.0760 C.ar    1  UNL1        0.0967
     32 C          10.5872   42.2421   22.5159 C.3     1  UNL1        0.1538
@<TRIPOS>BOND
     1    18    19    1
     2    19    17    1
     3    17    15    1
     4    15    16    2
     5    15     5    1
     6     5     9   ar
     7     5     6   ar
     8     6    13    1
     9     6     7   ar
    10     7     8   ar
    11     7    10    1
    12     8     9   ar
    13     9     1    1
    14     1     2   am
    15     2     3    2
    16     2    20    1
    17    20    21    1
    18    20    22    1
    19    22    23    1
    20    23    24    2
    21    23    25    1
    22    25    26    2
    23    26    27    1
    24    27    31   ar
    25    27    28   ar
    26    28    29   ar
    27    29    30   ar
    28    30    31   ar
    29    30    32    1
    30    10    11    1
    31    11    12    1
    32    11    14    1
    33    12    13    1
    34     1     4    1
@<TRIPOS>MOLECULE
ZINC14131463
 33 35 0 0 0
SMALL
GASTEIGER

@<TRIPOS>ATOM
      1 C          24.3842   38.8051   27.4508 C.ar    1  UNL1        0.0036
      2 C          23.3907   39.7847   27.5719 C.ar    1  UNL1       -0.0007
      3 C          22.4774   39.7149   28.6008 C.ar    1  UNL1        0.0192
      4 C          22.5458   38.6817   29.5260 C.ar    1  UNL1        0.1690
      5 C          23.5354   37.7056   29.4161 C.ar    1  UNL1        0.1721
      6 C          24.4519   37.7637   28.3848 C.ar    1  UNL1        0.0400
      7 C          26.1590   39.9638   26.2209 C.2     1  UNL1        0.0684
      8 C          25.3551   38.8730   26.3523 C.2     1  UNL1        0.0104
      9 C          25.3863   44.5366   29.6320 C.3     1  UNL1        0.0310
     10 C          25.5886   43.3396   28.7390 C.ar    1  UNL1       -0.0218
     11 C          26.1143   42.1714   29.2616 C.ar    1  UNL1       -0.0042
     12 C          26.3020   41.0720   28.4492 C.ar    1  UNL1        0.0003
     13 C          25.9603   41.1403   27.0985 C.ar    1  UNL1        0.0096
     14 C          25.4359   42.3227   26.5764 C.ar    1  UNL1        0.0003
     15 C          25.2473   43.4133   27.4004 C.ar    1  UNL1       -0.0042
     16 C          27.2005   39.9714   25.2381 C.1     1  UNL1        0.1004
     17 N          28.0267   39.9774   24.4585 N.1     1  UNL1       -0.1908
     18 O          23.5977   36.6956   30.3246 O.3     1  UNL1       -0.4684
     19 C          24.6706   36.7366   31.2677 C.3     1  UNL1        0.2526
     20 O          21.6459   38.6221   30.5419 O.3     1  UNL1       -0.4679
     21 C          20.3149   38.2238   30.2071 C.3     1  UNL1        0.2322
     22 C          19.3484   38.8175   31.1992 C.ar    1  UNL1        0.0228
     23 C          17.9899   38.6073   31.0516 C.ar    1  UNL1       -0.0006
     24 C          17.1034   39.1513   31.9617 C.ar    1  UNL1        0.0015
     25 C          17.5752   39.9058   33.0199 C.ar    1  UNL1        0.0241
     26 C          18.9332   40.1159   33.1676 C.ar    1  UNL1        0.1427
     27 C          19.8203   39.5672   32.2601 C.ar    1  UNL1        0.0234
     28 N          19.4383   40.9232   34.3007 N.pl3   1  UNL1        0.0577
     29 O          19.0710   42.0763   34.4385 O.2     1  UNL1       -0.1261
     30 O          20.2214   40.4344   35.0954 O.2     1  UNL1       -0.1261
     31 C          21.4047   40.7659   28.7259 C.3     1  UNL1        0.0555
     32 C          21.9406   42.0902   28.2462 C.2     1  UNL1       -0.0213
     33 C          21.9837   43.1138   29.0626 C.2     1  UNL1       -0.0046
@<TRIPOS>BOND
     1     9    10    1
     2    10    15   ar
     3    10    11   ar
     4    11    12   ar
     5    12    13   ar
     6    13    14   ar
     7    13     7    1
     8    14    15   ar
     9     7     8    2
    10     7    16    1
    11     8     1    1
    12     1     6   ar
    13     1     2   ar
    14     2     3   ar
    15     3     4   ar
    16     3    31    1
    17     4     5   ar
    18     4    20    1
    19     5     6   ar
    20     5    18    1
    21    18    19    1
    22    20    21    1
    23    21    22    1
    24    22    27   ar
    25    22    23   ar
    26    23    24   ar
    27    24    25   ar
    28    25    26   ar
    29    26    27   ar
    30    26    28    1
    31    28    29    2
    32    28    30    2
    33    31    32    1
    34    32    33    2
    35    16    17    3
@<TRIPOS>MOLECULE
ZINC21140351
 33 36 0 0 0
SMALL
GASTEIGER

@<TRIPOS>ATOM
      1 N          25.7195   38.5822   28.3187 N.ar    1  UNL1       -0.2165
      2 C          26.1418   39.7976   28.7232 C.ar    1  UNL1        0.2763
      3 O          27.2760   39.9574   29.1356 O.2     1  UNL1       -0.2655
      4 C          25.2025   40.9255   28.6502 C.ar    1  UNL1        0.0593
      5 C          25.5416   42.2177   29.0389 C.ar    1  UNL1        0.0048
      6 C          24.6001   43.2204   28.9445 C.ar    1  UNL1        0.0002
      7 C          23.3237   42.9529   28.4674 C.ar    1  UNL1        0.0001
      8 C          22.9683   41.6791   28.0773 C.ar    1  UNL1        0.0019
      9 C          23.9028   40.6530   28.1645 C.ar    1  UNL1        0.0304
     10 C          23.6041   39.2667   27.7696 C.ar    1  UNL1        0.1764
     11 N          24.5390   38.3540   27.8816 N.ar    1  UNL1       -0.1602
     12 C          22.2692   38.9086   27.2544 C.2     1  UNL1        0.3612
     13 O          22.1616   38.3572   26.1770 O.2     1  UNL1       -0.2431
     14 O          21.1689   39.1930   27.9786 O.3     1  UNL1       -0.4386
     15 C          20.6441   38.1350   28.8235 C.3     1  UNL1        0.2450
     16 C          21.3944   36.8330   28.5354 C.3     1  UNL1        0.0575
     17 C          20.8277   38.5107   30.2713 C.2     1  UNL1        0.2697
     18 O          21.9419   38.5633   30.7477 O.2     1  UNL1       -0.2706
     19 N          19.7538   38.7882   31.0369 N.am    1  UNL1       -0.2557
     20 C          18.3590   38.6582   30.6064 C.3     1  UNL1        0.1030
     21 C          17.5204   39.0865   31.8216 C.3     1  UNL1        0.0495
     22 C          18.5390   39.4379   32.8825 C.ar    1  UNL1       -0.0068
     23 C          19.8070   39.2367   32.3602 C.ar    1  UNL1        0.0500
     24 C          20.9195   39.5021   33.1605 C.ar    1  UNL1        0.0146
     25 C          20.7545   39.9478   34.4549 C.ar    1  UNL1        0.0013
     26 C          19.4853   40.1405   34.9681 C.ar    1  UNL1       -0.0002
     27 C          18.3785   39.8849   34.1797 C.ar    1  UNL1       -0.0030
     28 C          26.6611   37.4622   28.3892 C.3     1  UNL1        0.1307
     29 C          26.0239   36.3082   29.1657 C.3     1  UNL1        0.0265
     30 C          26.2547   36.5130   30.6643 C.3     1  UNL1        0.0021
     31 C          26.7023   35.1934   31.2964 C.3     1  UNL1        0.0001
     32 C          24.8206   36.0048   32.7259 C.3     1  UNL1        0.0000
     33 C          25.9432   34.9721   32.6063 C.3     1  UNL1        0.0000
@<TRIPOS>BOND
     1    32    33    1
     2    33    31    1
     3    31    30    1
     4    30    29    1
     5    29    28    1
     6    28     1    1
     7     1    11   ar
     8     1     2   ar
     9     2     3    2
    10     2     4   ar
    11     4     9   ar
    12     4     5   ar
    13     5     6   ar
    14     6     7   ar
    15     7     8   ar
    16     8     9   ar
    17     9    10   ar
    18    10    11   ar
    19    10    12    1
    20    12    13    2
    21    12    14    1
    22    14    15    1
    23    15    16    1
    24    15    17    1
    25    17    18    2
    26    17    19   am
    27    19    23    1
    28    19    20    1
    29    20    21    1
    30    21    22    1
    31    22    27   ar
    32    22    23   ar
    33    23    24   ar
    34    24    25   ar
    35    25    26   ar
    36    26    27   ar
@<TRIPOS>MOLECULE
ZINC13405516
 33 35 0 0 0
SMALL
GASTEIGER

@<TRIPOS>ATOM
      1 C          26.9126   41.0531   27.9081 C.3     1  UNL1        0.2493
      2 C          26.9724   42.0557   26.7845 C.2     1  UNL1        0.1745
      3 O          26.1044   42.0743   25.9452 O.2     1  UNL1       -0.2946
      4 C          28.1153   43.0348   26.7084 C.3     1  UNL1        0.0737
      5 C          26.0966   39.8622   27.4757 C.2     1  UNL1        0.3369
      6 O          25.9317   39.6376   26.3000 O.2     1  UNL1       -0.2487
      7 O          25.5532   39.0509   28.3967 O.3     1  UNL1       -0.4514
      8 C          26.3734   38.0031   30.5127 C.3     1  UNL1        0.0001
      9 C          25.8055   36.6716   30.0172 C.3     1  UNL1        0.0036
     10 C          24.3571   36.5279   30.4887 C.3     1  UNL1        0.0002
     11 C          23.5212   37.6796   29.9269 C.3     1  UNL1        0.0036
     12 C          23.5658   37.6436   28.3979 C.3     1  UNL1        0.0402
     13 C          25.0142   37.7874   27.9264 C.3     1  UNL1        0.1687
     14 C          25.8501   36.6356   28.4883 C.3     1  UNL1        0.0436
     15 C          22.7298   38.7953   27.8361 C.3     1  UNL1        0.0035
     16 C          21.7833   38.2606   26.7594 C.3     1  UNL1        0.0001
     17 C          21.9132   39.4302   28.9635 C.3     1  UNL1        0.0001
     18 C          26.2726   41.6890   29.1153 C.2     1  UNL1        0.1961
     19 O          26.6114   41.3515   30.2296 O.2     1  UNL1       -0.2899
     20 C          25.2363   42.7194   28.9417 C.ar    1  UNL1        0.0361
     21 C          23.9412   42.3562   28.5591 C.ar    1  UNL1        0.0029
     22 C          22.9756   43.3275   28.3990 C.ar    1  UNL1        0.0001
     23 C          23.2854   44.6588   28.6161 C.ar    1  UNL1        0.0000
     24 C          24.5663   45.0268   28.9894 C.ar    1  UNL1        0.0001
     25 C          25.5415   44.0668   29.1592 C.ar    1  UNL1        0.0029
     26 C          28.3087   40.6056   28.2569 C.2     1  UNL1        0.1961
     27 O          28.9421   41.1997   29.1032 O.2     1  UNL1       -0.2899
     28 C          28.9033   39.4476   27.5704 C.ar    1  UNL1        0.0361
     29 C          29.2816   39.5448   26.2275 C.ar    1  UNL1        0.0029
     30 C          29.8421   38.4567   25.5925 C.ar    1  UNL1        0.0001
     31 C          30.0218   37.2678   26.2779 C.ar    1  UNL1        0.0000
     32 C          29.6451   37.1620   27.6055 C.ar    1  UNL1        0.0001
     33 C          29.0877   38.2426   28.2558 C.ar    1  UNL1        0.0029
@<TRIPOS>BOND
     1     8     9    1
     2     9    14    1
     3     9    10    1
     4    10    11    1
     5    11    12    1
     6    12    13    1
     7    12    15    1
     8    13    14    1
     9    13     7    1
    10     7     5    1
    11     5     6    2
    12     5     1    1
    13     1     2    1
    14     1    18    1
    15     1    26    1
    16     2     3    2
    17     2     4    1
    18    18    19    2
    19    18    20    1
    20    20    25   ar
    21    20    21   ar
    22    21    22   ar
    23    22    23   ar
    24    23    24   ar
    25    24    25   ar
    26    26    27    2
    27    26    28    1
    28    28    33   ar
    29    28    29   ar
    30    29    30   ar
    31    30    31   ar
    32    31    32   ar
    33    32    33   ar
    34    15    16    1
    35    15    17    1
@<TRIPOS>MOLECULE
ZINC16883862
 31 33 0 0 0
SMALL
GASTEIGER

@<TRIPOS>ATOM
      1 C          24.7128   37.2889   30.0306 C.ar    1  UNL1        0.0516
      2 C          23.5247   37.6056   29.3826 C.ar    1  UNL1        0.0832
      3 N          23.5228   37.7744   28.0460 N.ar    1  UNL1       -0.2325
      4 C          24.6150   37.6465   27.3464 C.ar    1  UNL1        0.1231
      5 N          25.8001   37.3391   27.9254 N.ar    1  UNL1       -0.2800
      6 C          25.8793   37.1553   29.2598 C.ar    1  UNL1        0.2594
      7 O          26.9444   36.8777   29.7869 O.2     1  UNL1       -0.2672
      8 C          24.5577   37.8459   25.8536 C.3     1  UNL1        0.0719
      9 C          22.2791   37.7492   30.1488 C.2     1  UNL1        0.0190
     10 C          21.5204   38.8504   29.9993 C.2     1  UNL1        0.0015
     11 C          20.2719   38.9944   30.7672 C.ar    1  UNL1        0.0001
     12 C          20.3041   39.4899   32.0740 C.ar    1  UNL1        0.0017
     13 C          19.1304   39.6259   32.7851 C.ar    1  UNL1        0.0241
     14 C          17.9240   39.2643   32.2117 C.ar    1  UNL1        0.1429
     15 C          17.8846   38.7681   30.9203 C.ar    1  UNL1        0.0241
     16 C          19.0493   38.6308   30.1949 C.ar    1  UNL1        0.0017
     17 N          16.6692   39.4086   32.9836 N.pl3   1  UNL1        0.0577
     18 O          16.6890   39.9221   34.0878 O.2     1  UNL1       -0.1261
     19 O          15.6168   39.0139   32.5142 O.2     1  UNL1       -0.1261
     20 C          24.7488   37.0940   31.5244 C.3     1  UNL1        0.0327
     21 C          24.9085   35.6056   31.8409 C.3     1  UNL1        0.0049
     22 C          26.6064   35.9373   33.6435 C.3     1  UNL1        0.0000
     23 C          25.1968   35.4296   33.3332 C.3     1  UNL1        0.0003
     24 C          27.0022   37.2059   27.0988 C.3     1  UNL1        0.1377
     25 C          27.0863   35.8022   26.5570 C.ar    1  UNL1        0.0111
     26 C          26.9141   34.7230   27.4035 C.ar    1  UNL1       -0.0016
     27 C          26.9918   33.4354   26.9068 C.ar    1  UNL1       -0.0002
     28 C          27.2407   33.2261   25.5631 C.ar    1  UNL1        0.0008
     29 C          27.4125   34.3042   24.7157 C.ar    1  UNL1        0.0111
     30 C          27.3301   35.5934   25.2115 C.ar    1  UNL1        0.0555
     31 CL         27.5388   36.9484   24.1463 Cl      1  UNL1       -0.0825
@<TRIPOS>BOND
     1    22    23    1
     2    23    21    1
     3    21    20    1
     4    20     1    1
     5     1     6   ar
     6     1     2   ar
     7     2     3   ar
     8     2     9    1
     9     3     4   ar
    10     4     5   ar
    11     4     8    1
    12     5     6   ar
    13     5    24    1
    14     6     7    2
    15    24    25    1
    16    25    30   ar
    17    25    26   ar
    18    26    27   ar
    19    27    28   ar
    20    28    29   ar
    21    29    30   ar
    22    30    31    1
    23     9    10    2
    24    10    11    1
    25    11    16   ar
    26    11    12   ar
    27    12    13   ar
    28    13    14   ar
    29    14    15   ar
    30    14    17    1
    31    15    16   ar
    32    17    18    2
    33    17    19    2
@<TRIPOS>MOLECULE
ZINC26534127
 32 35 0 0 0
SMALL
GASTEIGER

@<TRIPOS>ATOM
      1 C          24.7674   38.2036   29.0091 C.2     1  UNL1        0.0144
      2 C          23.4253   38.2944   29.2085 C.ar    1  UNL1        0.0903
      3 C          22.6696   38.3343   30.4649 C.ar    1  UNL1        0.2881
      4 O          23.2395   38.2848   31.5391 O.2     1  UNL1       -0.2645
      5 N          21.3317   38.4309   30.3973 N.ar    1  UNL1       -0.1704
      6 C          20.7444   38.4764   29.1601 C.ar    1  UNL1        0.2012
      7 S          22.1030   38.3895   28.0118 S.2     1  UNL1       -0.0436
      8 N          19.4504   38.5649   28.9723 N.ar    1  UNL1       -0.1813
      9 C          18.6119   38.6170   30.0150 C.ar    1  UNL1        0.2966
     10 O          17.4054   38.7000   29.8451 O.2     1  UNL1       -0.2638
     11 C          19.1804   38.5724   31.3672 C.ar    1  UNL1        0.1410
     12 N          20.4638   38.4847   31.5220 N.ar    1  UNL1       -0.1599
     13 C          25.5245   39.6437   27.1240 C.ar    1  UNL1        0.1385
     14 C          26.0432   39.7789   25.8462 C.ar    1  UNL1        0.0369
     15 C          26.3674   38.6573   25.1073 C.ar    1  UNL1        0.0031
     16 C          26.1688   37.3896   25.6308 C.ar    1  UNL1        0.0002
     17 C          25.6495   37.2334   26.8968 C.ar    1  UNL1        0.0030
     18 C          25.3206   38.3608   27.6597 C.ar    1  UNL1        0.0346
     19 O          25.2097   40.7447   27.8520 O.3     1  UNL1       -0.4755
     20 C          24.3092   41.6808   27.2563 C.3     1  UNL1        0.2054
     21 C          23.1238   41.9163   28.1945 C.3     1  UNL1        0.0473
     22 C          23.3148   43.2416   28.9349 C.3     1  UNL1        0.0038
     23 C          23.7163   44.3298   27.9373 C.3     1  UNL1        0.0001
     24 C          25.1133   44.7247   29.9708 C.3     1  UNL1        0.0000
     25 C          24.8233   45.1944   28.5439 C.3     1  UNL1        0.0000
     26 C          18.2753   38.6278   32.5708 C.3     1  UNL1        0.0789
     27 C          18.8658   39.5556   33.6011 C.ar    1  UNL1       -0.0160
     28 C          19.7945   39.0801   34.5080 C.ar    1  UNL1       -0.0039
     29 C          20.3400   39.9324   35.4497 C.ar    1  UNL1       -0.0003
     30 C          19.9485   41.2575   35.4919 C.ar    1  UNL1       -0.0000
     31 C          19.0160   41.7318   34.5883 C.ar    1  UNL1       -0.0003
     32 C          18.4746   40.8808   33.6429 C.ar    1  UNL1       -0.0039
@<TRIPOS>BOND
     1    24    25    1
     2    25    23    1
     3    23    22    1
     4    22    21    1
     5    21    20    1
     6    20    19    1
     7    19    13    1
     8    13    18   ar
     9    13    14   ar
    10    14    15   ar
    11    15    16   ar
    12    16    17   ar
    13    17    18   ar
    14    18     1    1
    15     1     2    2
    16     2     7   ar
    17     2     3   ar
    18     3     4    2
    19     3     5   ar
    20     5    12   ar
    21     5     6   ar
    22     6     7   ar
    23     6     8   ar
    24     8     9   ar
    25     9    10    2
    26     9    11   ar
    27    11    12   ar
    28    11    26    1
    29    26    27    1
    30    27    32   ar
    31    27    28   ar
    32    28    29   ar
    33    29    30   ar
    34    30    31   ar
    35    31    32   ar
@<TRIPOS>MOLECULE
ZINC31477101
 31 32 0 0 0
SMALL
GASTEIGER

@<TRIPOS>ATOM
      1 C          24.7816   41.4754   28.1497 C.3     1  UNL1        0.2933
      2 N          24.4901   39.1283   28.8742 N.am    1  UNL1       -0.2545
      3 C          25.2905   40.2094   28.7893 C.2     1  UNL1        0.2740
      4 O          26.4204   40.1632   29.2277 O.2     1  UNL1       -0.2705
      5 C          27.1079   35.0238   28.1882 C.3     1  UNL1        0.0311
      6 C          26.2650   35.9138   29.0647 C.ar    1  UNL1       -0.0209
      7 C          25.9889   35.5392   30.3669 C.ar    1  UNL1       -0.0084
      8 C          25.2166   36.3535   31.1747 C.ar    1  UNL1       -0.0209
      9 C          24.7183   37.5440   30.6829 C.ar    1  UNL1        0.0106
     10 C          24.9933   37.9228   29.3755 C.ar    1  UNL1        0.0533
     11 C          25.7642   37.0999   28.5648 C.ar    1  UNL1        0.0106
     12 C          24.9186   35.9417   32.5935 C.3     1  UNL1        0.0311
     13 C          23.0931   39.2156   28.4417 C.3     1  UNL1        0.1145
     14 C          22.8127   38.1298   27.4009 C.3     1  UNL1        0.1272
     15 C          21.5929   37.3954   27.7743 C.1     1  UNL1        0.0750
     16 N          20.6515   36.8287   28.0625 N.1     1  UNL1       -0.1958
     17 O          25.8615   42.1183   27.4226 O.3     1  UNL1       -0.4352
     18 C          26.4271   43.1988   27.9962 C.2     1  UNL1        0.3448
     19 O          27.3064   43.0575   28.8231 O.2     1  UNL1       -0.2448
     20 C          25.9796   44.5506   27.6210 C.ar    1  UNL1        0.1126
     21 C          24.9885   45.2105   28.3540 C.ar    1  UNL1        0.0689
     22 N          24.6207   46.4256   27.9852 N.ar    1  UNL1       -0.2347
     23 C          25.1674   47.0183   26.9401 C.ar    1  UNL1        0.1388
     24 N          26.0999   46.4402   26.2127 N.ar    1  UNL1       -0.2243
     25 C          26.5343   45.2173   26.5070 C.ar    1  UNL1        0.1154
     26 C          24.3535   44.5491   29.5500 C.3     1  UNL1        0.0524
     27 C          24.7086   48.4044   26.5671 C.3     1  UNL1        0.0586
     28 C          24.4465   48.4669   25.0611 C.3     1  UNL1        0.0080
     29 C          23.4206   48.7360   27.3232 C.3     1  UNL1        0.0080
     30 S          27.7832   44.4485   25.5303 S.3     1  UNL1       -0.0938
     31 C          29.2586   45.2128   26.2481 C.3     1  UNL1        0.0757
@<TRIPOS>BOND
     1     5     6    1
     2     6    11   ar
     3     6     7   ar
     4     7     8   ar
     5     8     9   ar
     6     8    12    1
     7     9    10   ar
     8    10    11   ar
     9    10     2    1
    10     2    13    1
    11     2     3   am
    12    13    14    1
    13    14    15    1
    14    15    16    3
    15     3     4    2
    16     3     1    1
    17     1    17    1
    18    17    18    1
    19    18    19    2
    20    18    20    1
    21    20    25   ar
    22    20    21   ar
    23    21    22   ar
    24    21    26    1
    25    22    23   ar
    26    23    24   ar
    27    23    27    1
    28    24    25   ar
    29    25    30    1
    30    30    31    1
    31    27    28    1
    32    27    29    1
@<TRIPOS>MOLECULE
ZINC27616280
 31 33 0 0 0
SMALL
GASTEIGER

@<TRIPOS>ATOM
      1 C          12.8463   37.1298   27.3700 C.2     1  UNL1        0.1525
      2 N          12.3210   38.1835   26.8224 N.2     1  UNL1       -0.1692
      3 N          11.2025   38.0832   25.9889 N.am    1  UNL1       -0.1540
      4 C          10.4116   36.9933   26.0391 C.2     1  UNL1        0.2488
      5 O           9.4381   36.9144   25.3208 O.2     1  UNL1       -0.2728
      6 C          10.7420   35.8720   26.9912 C.3     1  UNL1        0.0939
      7 C          12.2616   35.7628   27.1332 C.3     1  UNL1        0.0638
      8 C          10.8985   39.1236   25.1005 C.ar    1  UNL1        0.1359
      9 C          11.1373   38.9694   23.7398 C.ar    1  UNL1        0.1851
     10 C          10.8319   39.9978   22.8637 C.ar    1  UNL1        0.1711
     11 C          10.2988   41.1821   23.3431 C.ar    1  UNL1        0.0640
     12 C          10.0644   41.3404   24.6985 C.ar    1  UNL1        0.1711
     13 C          10.3632   40.3137   25.5788 C.ar    1  UNL1        0.1851
     14 F          10.1351   40.4692   26.9013 F       1  UNL1       -0.2003
     15 F           9.5441   42.4975   25.1627 F       1  UNL1       -0.2017
     16 F          11.0589   39.8467   21.5405 F       1  UNL1       -0.2017
     17 F          11.6627   37.8160   23.2719 F       1  UNL1       -0.2003
     18 C          14.0201   37.2738   28.2347 C.2     1  UNL1        0.3569
     19 O          14.7791   36.3367   28.3907 O.2     1  UNL1       -0.2435
     20 O          14.2589   38.4459   28.8579 O.3     1  UNL1       -0.4386
     21 C          14.5557   38.3890   30.2782 C.3     1  UNL1        0.2471
     22 C          13.8026   39.5071   31.0018 C.3     1  UNL1        0.0578
     23 C          17.9449   38.9601   31.3153 C.ar    1  UNL1        0.1806
     24 N          16.6289   38.9533   31.5927 N.ar    1  UNL1       -0.1919
     25 C          16.0377   38.5633   30.4890 C.ar    1  UNL1        0.2766
     26 O          17.0000   38.3556   29.5853 O.2     1  UNL1       -0.3336
     27 N          18.0838   38.5882   30.0780 N.ar    1  UNL1       -0.0605
     28 C          19.0543   39.3353   32.2637 C.3     1  UNL1        0.0692
     29 C          18.5045   39.4051   33.6897 C.3     1  UNL1        0.0081
     30 C          20.3518   40.0583   35.2399 C.3     1  UNL1        0.0000
     31 C          19.5576   38.8820   34.6686 C.3     1  UNL1        0.0005
@<TRIPOS>BOND
     1    30    31    1
     2    31    29    1
     3    29    28    1
     4    28    23    1
     5    23    27   ar
     6    23    24   ar
     7    24    25   ar
     8    25    26   ar
     9    25    21    1
    10    26    27   ar
    11    21    22    1
    12    21    20    1
    13    20    18    1
    14    18    19    2
    15    18     1    1
    16     1     7    1
    17     1     2    2
    18     2     3    1
    19     3     4   am
    20     3     8    1
    21     4     5    2
    22     4     6    1
    23     6     7    1
    24     8    13   ar
    25     8     9   ar
    26     9    10   ar
    27     9    17    1
    28    10    11   ar
    29    10    16    1
    30    11    12   ar
    31    12    13   ar
    32    12    15    1
    33    13    14    1
@<TRIPOS>MOLECULE
ZINC14695922
 30 32 0 0 0
SMALL
GASTEIGER

@<TRIPOS>ATOM
      1 C          20.9915   37.4561   28.3447 C.2     1  UNL1        0.0827
      2 O          20.4925   36.4703   27.8369 O.2     1  UNL1       -0.3129
      3 C          24.3731   37.2851   29.9690 C.ar    1  UNL1        0.1724
      4 C          23.0052   37.2186   29.7889 C.ar    1  UNL1        0.0413
      5 C          22.4522   37.5251   28.5426 C.ar    1  UNL1        0.0188
      6 C          23.2852   37.8974   27.4845 C.ar    1  UNL1        0.0046
      7 C          24.6489   37.9618   27.6711 C.ar    1  UNL1        0.0403
      8 C          25.1985   37.6577   28.9092 C.ar    1  UNL1        0.1779
      9 O          24.9148   36.9878   31.1807 O.3     1  UNL1       -0.4724
     10 C          25.1794   35.4864   33.0558 C.3     1  UNL1        0.0512
     11 C          24.9713   35.6072   31.5448 C.3     1  UNL1        0.2057
     12 O          26.5430   37.7234   29.0882 O.3     1  UNL1       -0.4205
     13 C          27.3103   36.5961   28.6607 C.3     1  UNL1        0.5087
     14 F          26.4619   35.5006   28.4680 F       1  UNL1       -0.1550
     15 F          27.9579   36.9015   27.4588 F       1  UNL1       -0.1550
     16 N          20.2103   38.4858   28.7270 N.am    1  UNL1       -0.5887
     17 C          19.8297   38.6131   30.0596 C.ar    1  UNL1        0.0183
     18 N          18.8804   37.9875   30.7365 N.ar    1  UNL1       -0.1652
     19 N          18.6631   38.2232   31.9563 N.ar    1  UNL1       -0.1363
     20 C          19.3727   39.1126   32.6352 C.ar    1  UNL1        0.1580
     21 S          20.4900   39.6647   31.3496 S.2     1  UNL1       -0.0641
     22 S          19.2552   39.6059   34.3227 S.3     1  UNL1       -0.0819
     23 C          18.0837   40.9905   34.2946 C.3     1  UNL1        0.0904
     24 C          16.8232   40.5676   33.5850 C.ar    1  UNL1       -0.0109
     25 C          16.3077   41.3485   32.5674 C.ar    1  UNL1       -0.0037
     26 C          15.1539   40.9583   31.9136 C.ar    1  UNL1       -0.0046
     27 C          14.5104   39.7923   32.2838 C.ar    1  UNL1       -0.0219
     28 C          15.0232   39.0139   33.3045 C.ar    1  UNL1       -0.0046
     29 C          16.1794   39.4018   33.9554 C.ar    1  UNL1       -0.0037
     30 C          13.2499   39.3693   31.5742 C.3     1  UNL1        0.0310
@<TRIPOS>UNITY_ATOM_ATTR
16 1
charge -1
@<TRIPOS>BOND
     1    10    11    1
     2    11     9    1
     3     9     3    1
     4     3     8   ar
     5     3     4   ar
     6     4     5   ar
     7     5     6   ar
     8     5     1    1
     9     6     7   ar
    10     7     8   ar
    11     8    12    1
    12    12    13    1
    13    13    14    1
    14    13    15    1
    15     1     2    2
    16     1    16    1
    17    16    17    1
    18    17    21   ar
    19    17    18   ar
    20    18    19   ar
    21    19    20   ar
    22    20    21   ar
    23    20    22    1
    24    22    23    1
    25    23    24    1
    26    24    29   ar
    27    24    25   ar
    28    25    26   ar
    29    26    27   ar
    30    27    28   ar
    31    27    30    1
    32    28    29   ar
@<TRIPOS>MOLECULE
ZINC09033782
 31 33 0 0 0
SMALL
GASTEIGER

@<TRIPOS>ATOM
      1 C          19.7793   38.9074   32.1213 C.ar    1  UNL1       -0.0128
      2 C          18.4490   39.0109   31.8673 C.ar    1  UNL1        0.0781
      3 C          17.9682   38.8163   30.5558 C.ar    1  UNL1        0.3456
      4 O          16.7730   38.9116   30.3418 O.2     1  UNL1       -0.2445
      5 O          18.7938   38.5283   29.5376 O.2     1  UNL1       -0.4209
      6 C          20.1264   38.4114   29.7221 C.ar    1  UNL1        0.1515
      7 C          20.6744   38.5929   31.0056 C.ar    1  UNL1        0.0320
      8 C          22.0546   38.4723   31.2017 C.ar    1  UNL1        0.0172
      9 C          22.8671   38.1779   30.1440 C.ar    1  UNL1        0.0924
     10 C          22.3302   38.0025   28.8692 C.ar    1  UNL1        0.1622
     11 C          20.9656   38.1134   28.6590 C.ar    1  UNL1        0.0760
     12 CL         24.5794   38.0280   30.3869 Cl      1  UNL1       -0.0791
     13 C          20.3195   39.1111   33.5134 C.3     1  UNL1        0.0267
     14 C          20.3958   40.6087   33.8168 C.3     1  UNL1        0.0047
     15 C          18.5858   41.6689   35.1740 C.3     1  UNL1        0.0000
     16 C          19.8879   40.8681   35.2365 C.3     1  UNL1        0.0003
     17 O          23.1513   37.7162   27.8263 O.3     1  UNL1       -0.4201
     18 C          23.3613   38.6967   26.9256 C.2     1  UNL1        0.3459
     19 O          22.9183   38.5918   25.7989 O.2     1  UNL1       -0.2445
     20 C          24.1285   39.8966   27.3074 C.ar    1  UNL1        0.0823
     21 C          25.4941   39.7947   27.5874 C.ar    1  UNL1        0.0467
     22 C          26.2120   40.9220   27.9397 C.ar    1  UNL1        0.1757
     23 C          25.5736   42.1564   28.0267 C.ar    1  UNL1        0.2061
     24 C          24.2121   42.2600   27.7535 C.ar    1  UNL1        0.1757
     25 C          23.4906   41.1371   27.3955 C.ar    1  UNL1        0.0467
     26 O          23.5919   43.4673   27.8394 O.3     1  UNL1       -0.4683
     27 C          22.7507   43.6853   28.9739 C.3     1  UNL1        0.2526
     28 O          26.2807   43.2622   28.3785 O.3     1  UNL1       -0.4654
     29 C          26.8633   44.0240   27.3190 C.3     1  UNL1        0.2528
     30 O          27.5419   40.8245   28.2073 O.3     1  UNL1       -0.4683
     31 C          28.1529   39.5489   28.0032 C.3     1  UNL1        0.2526
@<TRIPOS>BOND
     1    15    16    1
     2    16    14    1
     3    14    13    1
     4    13     1    1
     5     1     7   ar
     6     1     2   ar
     7     2     3   ar
     8     3     4    2
     9     3     5   ar
    10     5     6   ar
    11     6    11   ar
    12     6     7   ar
    13     7     8   ar
    14     8     9   ar
    15     9    10   ar
    16     9    12    1
    17    10    11   ar
    18    10    17    1
    19    17    18    1
    20    18    19    2
    21    18    20    1
    22    20    25   ar
    23    20    21   ar
    24    21    22   ar
    25    22    23   ar
    26    22    30    1
    27    23    24   ar
    28    23    28    1
    29    24    25   ar
    30    24    26    1
    31    26    27    1
    32    28    29    1
    33    30    31    1
@<TRIPOS>MOLECULE
ZINC29973754
 32 35 0 0 0
SMALL
GASTEIGER

@<TRIPOS>ATOM
      1 C          11.8896   36.5967   27.1883 C.2     1  UNL1        0.3418
      2 O          12.6195   35.7332   26.7402 O.2     1  UNL1       -0.2449
      3 C          12.3089   37.3771   28.3517 C.2     1  UNL1        0.0819
      4 C          13.5896   37.3252   28.7729 C.2     1  UNL1        0.0067
      5 C          14.0116   38.1107   29.9438 C.ar    1  UNL1        0.0032
      6 C          13.0885   38.4302   30.9453 C.ar    1  UNL1        0.0002
      7 C          13.4896   39.1626   32.0425 C.ar    1  UNL1        0.0031
      8 C          14.8002   39.5915   32.1525 C.ar    1  UNL1        0.0369
      9 C          15.7232   39.2844   31.1615 C.ar    1  UNL1        0.1391
     10 C          15.3349   38.5458   30.0573 C.ar    1  UNL1        0.0369
     11 O          17.0092   39.7092   31.2763 O.3     1  UNL1       -0.4706
     12 C          17.9173   38.8491   31.9673 C.3     1  UNL1        0.2320
     13 C          18.5837   39.6137   33.0819 C.ar    1  UNL1        0.0212
     14 C          19.8236   39.2172   33.5471 C.ar    1  UNL1       -0.0007
     15 C          20.4373   39.9218   34.5658 C.ar    1  UNL1       -0.0002
     16 C          19.8062   41.0162   35.1269 C.ar    1  UNL1       -0.0000
     17 C          18.5638   41.4093   34.6657 C.ar    1  UNL1       -0.0002
     18 C          17.9526   40.7082   33.6430 C.ar    1  UNL1       -0.0007
     19 O          10.6931   36.8346   26.6121 O.3     1  UNL1       -0.4387
     20 C          10.6510   36.8419   25.1837 C.3     1  UNL1        0.2544
     21 C          10.8024   42.2187   21.8620 C.ar    1  UNL1        0.1110
     22 N          10.5336   42.1011   23.1268 N.ar    1  UNL1       -0.1585
     23 N          10.5284   40.8622   23.7602 N.ar    1  UNL1       -0.1705
     24 C          10.2629   40.6080   25.0753 C.ar    1  UNL1        0.2834
     25 O           9.9928   41.5267   25.8334 O.2     1  UNL1       -0.2650
     26 C          10.3002   39.2972   25.5514 C.ar    1  UNL1        0.0810
     27 C          10.6054   38.2650   24.6898 C.ar    1  UNL1        0.1097
     28 N          10.8644   38.5482   23.4158 N.ar    1  UNL1       -0.2213
     29 C          10.8218   39.7803   22.9761 C.ar    1  UNL1        0.1992
     30 S          11.0952   40.5237   21.3826 S.2     1  UNL1       -0.0321
     31 C          11.5087   43.1422   19.6717 C.3     1  UNL1        0.0073
     32 C          10.8537   43.4649   21.0161 C.3     1  UNL1        0.0545
@<TRIPOS>BOND
     1    31    32    1
     2    32    21    1
     3    21    30   ar
     4    21    22   ar
     5    22    23   ar
     6    23    29   ar
     7    23    24   ar
     8    24    25    2
     9    24    26   ar
    10    26    27   ar
    11    27    28   ar
    12    27    20    1
    13    28    29   ar
    14    29    30   ar
    15    20    19    1
    16    19     1    1
    17     1     2    2
    18     1     3    1
    19     3     4    2
    20     4     5    1
    21     5    10   ar
    22     5     6   ar
    23     6     7   ar
    24     7     8   ar
    25     8     9   ar
    26     9    10   ar
    27     9    11    1
    28    11    12    1
    29    12    13    1
    30    13    18   ar
    31    13    14   ar
    32    14    15   ar
    33    15    16   ar
    34    16    17   ar
    35    17    18   ar
@<TRIPOS>MOLECULE
ZINC03233356
 30 32 0 0 0
SMALL
GASTEIGER

@<TRIPOS>ATOM
      1 C          23.7075   37.9953   28.4019 C.ar    1  UNL1        0.0999
      2 C          25.0167   37.5899   28.4314 C.ar    1  UNL1        0.0156
      3 C          25.4812   36.9124   29.6492 C.ar    1  UNL1        0.0372
      4 S          24.0868   36.8888   30.6757 S.2     1  UNL1       -0.0673
      5 C          22.9158   37.7055   29.6096 C.ar    1  UNL1        0.1170
      6 C          25.9169   37.8182   27.2889 C.ar    1  UNL1        0.0113
      7 C          25.9962   36.8758   26.2545 C.ar    1  UNL1        0.0009
      8 C          26.8404   37.0973   25.1894 C.ar    1  UNL1        0.0001
      9 C          27.6151   38.2460   25.1400 C.ar    1  UNL1        0.0009
     10 C          27.5403   39.1857   26.1540 C.ar    1  UNL1        0.0114
     11 C          26.7001   38.9806   27.2289 C.ar    1  UNL1        0.0577
     12 CL         26.6128   40.1564   28.5031 Cl      1  UNL1       -0.0822
     13 C          23.1279   38.6798   27.2338 C.2     1  UNL1        0.3432
     14 O          22.4563   38.0563   26.4358 O.2     1  UNL1       -0.2448
     15 O          23.3426   39.9977   27.0497 O.3     1  UNL1       -0.4454
     16 C          23.6010   42.1628   28.1340 C.3     1  UNL1        0.0513
     17 C          22.7398   40.9043   28.0105 C.3     1  UNL1        0.2089
     18 N          21.6462   37.9828   29.8448 N.2     1  UNL1       -0.2371
     19 C          21.3136   38.7626   30.8747 C.2     1  UNL1        0.0994
     20 C          19.9788   39.0542   31.1220 C.2     1  UNL1        0.0207
     21 C          19.5738   39.4264   32.3979 C.2     1  UNL1        0.0032
     22 C          18.2119   39.7239   32.6502 C.ar    1  UNL1        0.0225
     23 C          17.1999   39.1079   31.8916 C.ar    1  UNL1        0.0017
     24 C          15.8802   39.4039   32.1454 C.ar    1  UNL1        0.0001
     25 C          15.5464   40.3056   33.1447 C.ar    1  UNL1        0.0017
     26 C          16.5357   40.9183   33.8983 C.ar    1  UNL1        0.0241
     27 C          17.8618   40.6328   33.6649 C.ar    1  UNL1        0.1428
     28 N          18.9157   41.2843   34.4749 N.pl3   1  UNL1        0.0577
     29 O          19.3521   42.4827   34.1466 O.2     1  UNL1       -0.1261
     30 O          19.4169   40.6655   35.5239 O.2     1  UNL1       -0.1261
@<TRIPOS>BOND
     1    16    17    1
     2    17    15    1
     3    15    13    1
     4    13    14    2
     5    13     1    1
     6     1     5   ar
     7     1     2   ar
     8     2     3   ar
     9     2     6    1
    10     3     4   ar
    11     4     5   ar
    12     5    18    1
    13    18    19    2
    14    19    20    1
    15    20    21    2
    16    21    22    1
    17    22    27   ar
    18    22    23   ar
    19    23    24   ar
    20    24    25   ar
    21    25    26   ar
    22    26    27   ar
    23    27    28    1
    24    28    29    2
    25    28    30    2
    26     6    11   ar
    27     6     7   ar
    28     7     8   ar
    29     8     9   ar
    30     9    10   ar
    31    10    11   ar
    32    11    12    1
@<TRIPOS>MOLECULE
ZINC05341042
 33 36 0 0 0
SMALL
GASTEIGER

@<TRIPOS>ATOM
      1 C          21.5119   40.2109   28.6382 C.3     1  UNL1        0.2177
      2 C          20.9578   39.6373   29.9459 C.3     1  UNL1        0.1238
      3 C          19.8631   38.6169   29.6231 C.3     1  UNL1        0.2946
      4 O          20.4012   37.5920   28.7852 O.3     1  UNL1       -0.3164
      5 C          20.8914   38.0632   27.5284 C.3     1  UNL1        0.1931
      6 C          22.0274   39.0612   27.7670 C.3     1  UNL1        0.2384
      7 O          22.6018   41.1243   28.9317 O.3     1  UNL1       -0.4451
      8 C          22.4745   42.3905   28.4898 C.2     1  UNL1        0.3412
      9 O          21.3878   42.8048   28.1386 O.2     1  UNL1       -0.2449
     10 C          25.8723   44.9322   28.3244 C.ar    1  UNL1        0.0000
     11 C          25.1083   44.8781   29.4767 C.ar    1  UNL1        0.0002
     12 C          24.0033   44.0547   29.5373 C.ar    1  UNL1        0.0064
     13 C          23.6562   43.2751   28.4321 C.ar    1  UNL1        0.0756
     14 C          24.4344   43.3310   27.2742 C.ar    1  UNL1        0.0064
     15 C          25.5338   44.1627   27.2254 C.ar    1  UNL1        0.0002
     16 O          23.1253   38.3941   28.4440 O.3     1  UNL1       -0.4428
     17 C          24.3054   38.3477   27.7961 C.2     1  UNL1        0.3413
     18 O          24.5285   37.4543   27.0038 O.2     1  UNL1       -0.2449
     19 C          25.3282   39.3831   28.0490 C.ar    1  UNL1        0.0756
     20 C          26.1395   39.8367   27.0070 C.ar    1  UNL1        0.0064
     21 C          27.0887   40.8080   27.2491 C.ar    1  UNL1        0.0002
     22 C          27.2456   41.3242   28.5232 C.ar    1  UNL1        0.0000
     23 C          26.4489   40.8750   29.5615 C.ar    1  UNL1        0.0002
     24 C          25.4919   39.9083   29.3323 C.ar    1  UNL1        0.0064
     25 O          19.3723   38.0269   30.8557 O.3     1  UNL1       -0.4211
     26 C          18.4466   38.7249   31.5416 C.2     1  UNL1        0.3430
     27 O          17.3000   38.7683   31.1429 O.2     1  UNL1       -0.2448
     28 C          18.8258   39.4375   32.7788 C.ar    1  UNL1        0.0757
     29 C          20.0364   39.1483   33.4117 C.ar    1  UNL1        0.0064
     30 C          20.3816   39.8134   34.5698 C.ar    1  UNL1        0.0002
     31 C          19.5365   40.7732   35.0983 C.ar    1  UNL1        0.0000
     32 C          18.3378   41.0685   34.4734 C.ar    1  UNL1        0.0002
     33 C          17.9778   40.4071   33.3176 C.ar    1  UNL1        0.0064
@<TRIPOS>BOND
     1    10    15   ar
     2    10    11   ar
     3    11    12   ar
     4    12    13   ar
     5    13    14   ar
     6    13     8    1
     7    14    15   ar
     8     8     9    2
     9     8     7    1
    10     7     1    1
    11     1     6    1
    12     1     2    1
    13     2     3    1
    14     3     4    1
    15     3    25    1
    16     4     5    1
    17     5     6    1
    18     6    16    1
    19    16    17    1
    20    17    18    2
    21    17    19    1
    22    19    24   ar
    23    19    20   ar
    24    20    21   ar
    25    21    22   ar
    26    22    23   ar
    27    23    24   ar
    28    25    26    1
    29    26    27    2
    30    26    28    1
    31    28    33   ar
    32    28    29   ar
    33    29    30   ar
    34    30    31   ar
    35    31    32   ar
    36    32    33   ar
@<TRIPOS>MOLECULE
ZINC11307621
 30 32 0 0 0
SMALL
GASTEIGER

@<TRIPOS>ATOM
      1 C          26.7167   35.6526   32.2287 C.ar    1  UNL1        0.0089
      2 C          27.1843   36.4736   31.2770 C.ar    1  UNL1        0.0090
      3 C          26.2466   37.2649   30.4990 C.ar    1  UNL1        0.0802
      4 C          24.8922   37.0818   30.8366 C.ar    1  UNL1        0.1171
      5 S          24.9513   35.8870   32.1473 S.2     1  UNL1       -0.0721
      6 N          23.9172   37.7337   30.2151 N.ar    1  UNL1       -0.2158
      7 C          24.1837   38.5870   29.2472 C.ar    1  UNL1        0.1743
      8 N          25.4699   38.8241   28.8567 N.ar    1  UNL1       -0.2753
      9 C          26.5046   38.1931   29.4416 C.ar    1  UNL1        0.2642
     10 O          27.6471   38.4126   29.0777 O.2     1  UNL1       -0.2669
     11 C          26.9131   34.8272   34.5588 C.3     1  UNL1        0.0056
     12 C          27.4969   34.7473   33.1469 C.3     1  UNL1        0.0330
     13 C          25.7284   39.7793   27.7764 C.3     1  UNL1        0.1156
     14 C          25.8342   39.0294   26.4470 C.3     1  UNL1        0.0511
     15 C          25.3417   39.9141   25.3307 C.ar    1  UNL1       -0.0170
     16 C          24.3767   39.4491   24.4567 C.ar    1  UNL1       -0.0009
     17 C          23.9177   40.2588   23.4346 C.ar    1  UNL1        0.0397
     18 C          24.4330   41.5354   23.2775 C.ar    1  UNL1        0.1724
     19 C          25.4085   42.0014   24.1537 C.ar    1  UNL1        0.1721
     20 C          25.8601   41.1866   25.1795 C.ar    1  UNL1        0.0358
     21 O          25.9171   43.2537   24.0039 O.3     1  UNL1       -0.4684
     22 C          27.3389   43.3870   24.0559 C.3     1  UNL1        0.2526
     23 O          23.9869   42.3311   22.2688 O.3     1  UNL1       -0.4684
     24 C          23.4747   41.6780   21.1055 C.3     1  UNL1        0.2526
     25 S          22.8620   39.4327   28.4455 S.3     1  UNL1       -0.0706
     26 C          21.4816   38.3484   28.8870 C.3     1  UNL1        0.1120
     27 C          20.2591   39.1975   29.2411 C.3     1  UNL1        0.0200
     28 C          21.1514   37.4549   27.7192 C.2     1  UNL1        0.1611
     29 O          20.3969   36.5235   27.8659 O.2     1  UNL1       -0.2952
     30 C          21.7629   37.7238   26.3683 C.3     1  UNL1        0.0732
@<TRIPOS>BOND
     1    11    12    1
     2    12     1    1
     3     1     5   ar
     4     1     2   ar
     5     2     3   ar
     6     3     9   ar
     7     3     4   ar
     8     4     5   ar
     9     4     6   ar
    10     6     7   ar
    11     7     8   ar
    12     7    25    1
    13     8     9   ar
    14     8    13    1
    15     9    10    2
    16    13    14    1
    17    14    15    1
    18    15    20   ar
    19    15    16   ar
    20    16    17   ar
    21    17    18   ar
    22    18    19   ar
    23    18    23    1
    24    19    20   ar
    25    19    21    1
    26    21    22    1
    27    23    24    1
    28    25    26    1
    29    26    27    1
    30    26    28    1
    31    28    29    2
    32    28    30    1
@<TRIPOS>MOLECULE
ZINC03350779
 28 29 0 0 0
SMALL
GASTEIGER

@<TRIPOS>ATOM
      1 N          21.3532   38.5742   29.5434 N.3     1  UNL1       -0.1478
      2 S          21.2789   39.5436   28.2028 S.O2    1  UNL1        0.0637
      3 O          20.2138   39.0490   27.4026 O.2     1  UNL1       -0.1528
      4 O          21.3221   40.8852   28.6689 O.2     1  UNL1       -0.1528
      5 C          22.7610   39.2807   27.2869 C.ar    1  UNL1        0.1231
      6 C          22.9301   38.1126   26.5667 C.ar    1  UNL1        0.0208
      7 C          24.0896   37.9076   25.8433 C.ar    1  UNL1        0.0136
      8 C          25.0869   38.8665   25.8485 C.ar    1  UNL1        0.0683
      9 C          24.9199   40.0337   26.5743 C.ar    1  UNL1        0.0695
     10 C          23.7561   40.2397   27.2933 C.ar    1  UNL1        0.0321
     11 CL         26.1700   41.2381   26.5815 Cl      1  UNL1       -0.0813
     12 CL         26.5465   38.6067   24.9454 Cl      1  UNL1       -0.0814
     13 C          20.1430   37.9122   30.0367 C.3     1  UNL1        0.1598
     14 C          16.7937   39.7340   33.3350 C.3     1  UNL1        0.0727
     15 C          18.1034   39.4939   32.6293 C.ar    1  UNL1        0.1291
     16 C          19.3019   40.0601   32.9555 C.ar    1  UNL1        0.1086
     17 C          20.2709   39.5176   31.9915 C.ar    1  UNL1        0.0436
     18 C          19.5736   38.6998   31.1884 C.ar    1  UNL1        0.1405
     19 O          18.2892   38.6905   31.5778 O.2     1  UNL1       -0.4603
     20 C          19.5693   41.0112   34.0471 C.2     1  UNL1        0.3441
     21 O          19.0664   42.1174   34.0261 O.2     1  UNL1       -0.2448
     22 O          20.3719   40.6552   35.0695 O.3     1  UNL1       -0.4413
     23 C          20.1716   39.3331   35.6353 C.3     1  UNL1        0.2560
     24 C          22.6293   38.3787   30.2361 C.3     1  UNL1        0.0963
     25 C          23.1517   36.9686   29.9543 C.3     1  UNL1        0.0192
     26 C          24.6474   36.9061   30.2705 C.3     1  UNL1        0.0014
     27 C          25.2834   38.2711   30.0000 C.3     1  UNL1        0.0000
     28 C          24.8424   36.5351   31.7420 C.3     1  UNL1        0.0000
@<TRIPOS>BOND
     1    14    15    1
     2    15    19   ar
     3    15    16   ar
     4    16    17   ar
     5    16    20    1
     6    17    18   ar
     7    18    19   ar
     8    18    13    1
     9    13     1    1
    10     1    24    1
    11     1     2    1
    12    24    25    1
    13    25    26    1
    14    26    27    1
    15    26    28    1
    16     2     3    2
    17     2     4    2
    18     2     5    1
    19     5    10   ar
    20     5     6   ar
    21     6     7   ar
    22     7     8   ar
    23     8     9   ar
    24     8    12    1
    25     9    10   ar
    26     9    11    1
    27    20    21    2
    28    20    22    1
    29    22    23    1
@<TRIPOS>MOLECULE
ZINC13962951
 31 33 0 0 0
SMALL
GASTEIGER

@<TRIPOS>ATOM
      1 N          22.8043   39.7979   28.8716 N.ar    1  UNL1       -0.3064
      2 C          23.9515   40.5425   28.6999 C.ar    1  UNL1        0.0674
      3 C          25.2879   40.1252   28.8372 C.ar    1  UNL1        0.0180
      4 C          26.3180   40.9902   28.6371 C.ar    1  UNL1        0.0080
      5 C          26.0860   42.3254   28.2880 C.ar    1  UNL1        0.0762
      6 C          24.7662   42.7679   28.1447 C.ar    1  UNL1        0.0144
      7 C          23.7367   41.8861   28.3490 C.ar    1  UNL1        0.0481
      8 S          21.9673   42.0097   28.2779 S.2     1  UNL1       -0.0514
      9 C          21.5836   40.3699   28.6919 C.ar    1  UNL1        0.1672
     10 N          20.3832   39.8078   28.8107 N.am    1  UNL1       -0.1555
     11 C          20.2692   38.5855   29.3201 C.2     1  UNL1        0.2517
     12 O          20.1604   37.6264   28.5805 O.2     1  UNL1       -0.2726
     13 C          20.2747   38.3882   30.8141 C.3     1  UNL1        0.1132
     14 C          18.9354   38.7868   31.3784 C.ar    1  UNL1       -0.0173
     15 C          17.7886   38.6122   30.6262 C.ar    1  UNL1       -0.0084
     16 C          16.5602   38.9774   31.1439 C.ar    1  UNL1       -0.0222
     17 C          16.4783   39.5169   32.4142 C.ar    1  UNL1       -0.0046
     18 C          17.6246   39.6915   33.1662 C.ar    1  UNL1       -0.0049
     19 C          18.8540   39.3315   32.6460 C.ar    1  UNL1       -0.0253
     20 C          20.1048   39.5276   33.4637 C.3     1  UNL1        0.0307
     21 C          15.3102   38.7871   30.3239 C.3     1  UNL1        0.0310
     22 C          27.2143   43.2514   28.0750 C.2     1  UNL1        0.3412
     23 O          27.1646   44.3816   28.5180 O.2     1  UNL1       -0.2449
     24 O          28.3002   42.8438   27.3892 O.3     1  UNL1       -0.4454
     25 C          28.4466   43.3382   26.0319 C.3     1  UNL1        0.2089
     26 C          29.7010   44.2092   25.9389 C.3     1  UNL1        0.0513
     27 C          22.9004   38.3845   29.2448 C.3     1  UNL1        0.1397
     28 C          23.6486   37.6183   28.1521 C.3     1  UNL1        0.1666
     29 O          23.0023   37.8287   26.8950 O.3     1  UNL1       -0.3517
     30 C          23.8846   39.3126   25.2039 C.3     1  UNL1        0.0346
     31 C          23.8991   37.8972   25.7847 C.3     1  UNL1        0.1423
@<TRIPOS>BOND
     1    30    31    1
     2    31    29    1
     3    29    28    1
     4    28    27    1
     5    27     1    1
     6     1     9   ar
     7     1     2   ar
     8     2     7   ar
     9     2     3   ar
    10     3     4   ar
    11     4     5   ar
    12     5     6   ar
    13     5    22    1
    14     6     7   ar
    15     7     8   ar
    16     8     9   ar
    17     9    10    2
    18    10    11    1
    19    11    12    2
    20    11    13    1
    21    13    14    1
    22    14    19   ar
    23    14    15   ar
    24    15    16   ar
    25    16    17   ar
    26    16    21    1
    27    17    18   ar
    28    18    19   ar
    29    19    20    1
    30    22    23    2
    31    22    24    1
    32    24    25    1
    33    25    26    1
@<TRIPOS>MOLECULE
ZINC09493061
 31 35 0 0 0
SMALL
GASTEIGER

@<TRIPOS>ATOM
      1 C          13.9015   37.1993   28.1322 C.2     1  UNL1        0.3290
      2 O          14.4742   36.1401   28.2329 O.2     1  UNL1       -0.2491
      3 C          12.4901   37.2457   27.6061 C.3     1  UNL1        0.1743
      4 S          12.4655   38.1197   26.0213 S.3     1  UNL1       -0.0619
      5 N          10.0304   38.6297   24.7451 N.ar    1  UNL1       -0.1865
      6 C          10.7963   37.8288   25.5373 C.ar    1  UNL1        0.2152
      7 N          10.0541   36.7938   25.8678 N.ar    1  UNL1       -0.1011
      8 N           8.8840   36.8945   25.3490 N.ar    1  UNL1       -0.0218
      9 N           8.7897   37.9748   24.6525 N.ar    1  UNL1       -0.0382
     10 C          11.7252   41.0894   20.8373 C.3     1  UNL1        0.0311
     11 C          11.2239   41.0648   22.2583 C.ar    1  UNL1       -0.0204
     12 C          11.1281   42.2423   22.9775 C.ar    1  UNL1       -0.0045
     13 C          10.6691   42.2237   24.2814 C.ar    1  UNL1       -0.0031
     14 C          10.3046   41.0282   24.8699 C.ar    1  UNL1       -0.0041
     15 C          10.3997   39.8447   24.1505 C.ar    1  UNL1        0.0823
     16 C          10.8664   39.8659   22.8430 C.ar    1  UNL1        0.0147
     17 C           9.8048   41.0086   26.2915 C.3     1  UNL1        0.0326
     18 O          14.5223   38.3346   28.4891 O.3     1  UNL1       -0.4397
     19 C          14.5062   38.6794   29.8996 C.3     1  UNL1        0.2720
     20 C          15.9209   38.8378   30.3941 C.2     1  UNL1        0.1937
     21 O          16.8439   38.4539   29.7167 O.2     1  UNL1       -0.2922
     22 C          16.1837   39.4754   31.7340 C.3     1  UNL1        0.0552
     23 C          17.6366   39.2240   32.1423 C.3     1  UNL1        0.0070
     24 C          17.9034   39.8712   33.5028 C.3     1  UNL1        0.0004
     25 C          16.9672   39.2635   34.5491 C.3     1  UNL1        0.0000
     26 C          15.5141   39.5150   34.1408 C.3     1  UNL1        0.0004
     27 C          15.2474   38.8677   32.7804 C.3     1  UNL1        0.0070
     28 C          15.2644   41.0215   34.0466 C.3     1  UNL1        0.0000
     29 C          16.2007   41.6293   33.0002 C.3     1  UNL1        0.0004
     30 C          17.6536   41.3778   33.4085 C.3     1  UNL1        0.0000
     31 C          15.9339   40.9820   31.6398 C.3     1  UNL1        0.0070
@<TRIPOS>BOND
     1    10    11    1
     2    11    16   ar
     3    11    12   ar
     4    12    13   ar
     5    13    14   ar
     6    14    15   ar
     7    14    17    1
     8    15    16   ar
     9    15     5    1
    10     5     9   ar
    11     5     6   ar
    12     6     7   ar
    13     6     4    1
    14     7     8   ar
    15     8     9   ar
    16     4     3    1
    17     3     1    1
    18     1     2    2
    19     1    18    1
    20    18    19    1
    21    19    20    1
    22    20    21    2
    23    20    22    1
    24    22    27    1
    25    22    31    1
    26    22    23    1
    27    23    24    1
    28    24    30    1
    29    24    25    1
    30    25    26    1
    31    26    27    1
    32    26    28    1
    33    28    29    1
    34    29    30    1
    35    29    31    1
@<TRIPOS>MOLECULE
ZINC28357025
 30 33 0 0 0
SMALL
GASTEIGER

@<TRIPOS>ATOM
      1 C          22.4957   38.0428   29.0062 C.ar    1  UNL1        0.0995
      2 C          23.0145   36.9613   29.7290 C.ar    1  UNL1        0.0101
      3 C          24.2979   37.0641   30.2346 C.ar    1  UNL1        0.0209
      4 C          25.0249   38.2222   30.0195 C.ar    1  UNL1        0.0994
      5 N          24.5211   39.2277   29.3320 N.ar    1  UNL1       -0.2371
      6 C          23.2981   39.1831   28.8255 C.ar    1  UNL1        0.1183
      7 C          21.1347   37.9869   28.4461 C.2     1  UNL1        0.3437
      8 O          20.9749   37.9192   27.2433 O.2     1  UNL1       -0.2448
      9 O          20.0665   38.0109   29.2676 O.3     1  UNL1       -0.4330
     10 C          19.8041   39.2535   29.9715 C.3     1  UNL1        0.3170
     11 C          19.5417   38.9609   31.4264 C.2     1  UNL1        0.3619
     12 O          18.9216   37.9729   31.7415 O.2     1  UNL1       -0.2459
     13 O          19.9967   39.7977   32.3720 O.3     1  UNL1       -0.4532
     14 C          19.3480   38.8486   34.5188 C.3     1  UNL1        0.0437
     15 C          19.1503   40.0026   33.5338 C.3     1  UNL1        0.1364
     16 C          19.5253   41.3218   34.2118 C.3     1  UNL1        0.0437
     17 C          17.6854   40.0531   33.0948 C.3     1  UNL1        0.0437
     18 S          22.6730   40.5601   27.9211 S.3     1  UNL1       -0.0487
     19 C          23.9370   40.7264   26.7047 C.ar    1  UNL1        0.1154
     20 C          24.8054   41.8522   26.7153 C.ar    1  UNL1        0.0440
     21 C          24.8184   42.9894   27.6496 C.ar    1  UNL1       -0.0162
     22 C          25.7504   43.9338   27.4432 C.ar    1  UNL1        0.0048
     23 S          26.6565   43.3861   26.0143 S.2     1  UNL1       -0.0726
     24 C          25.7771   41.8804   25.6983 C.ar    1  UNL1        0.1138
     25 N          25.8636   40.9174   24.8006 N.ar    1  UNL1       -0.2173
     26 C          25.0292   39.8963   24.8399 C.ar    1  UNL1        0.1998
     27 N          24.0962   39.8021   25.7701 N.ar    1  UNL1       -0.2173
     28 C          25.6718   45.0421   28.4589 C.3     1  UNL1        0.0330
     29 C          24.8257   44.4538   29.6094 C.3     1  UNL1        0.0099
     30 C          23.9860   43.3939   28.8699 C.3     1  UNL1        0.0270
@<TRIPOS>BOND
     1    14    15    1
     2    15    16    1
     3    15    17    1
     4    15    13    1
     5    13    11    1
     6    11    12    2
     7    11    10    1
     8    10     9    1
     9     9     7    1
    10     7     8    2
    11     7     1    1
    12     1     6   ar
    13     1     2   ar
    14     2     3   ar
    15     3     4   ar
    16     4     5   ar
    17     5     6   ar
    18     6    18    1
    19    18    19    1
    20    19    27   ar
    21    19    20   ar
    22    20    24   ar
    23    20    21   ar
    24    21    30    1
    25    21    22   ar
    26    22    23   ar
    27    22    28    1
    28    23    24   ar
    29    24    25   ar
    30    25    26   ar
    31    26    27   ar
    32    28    29    1
    33    29    30    1
@<TRIPOS>MOLECULE
ZINC08592901
 31 33 0 0 0
SMALL
GASTEIGER

@<TRIPOS>ATOM
      1 C          24.6595   39.2642   28.5431 C.ar    1  UNL1        0.0555
      2 C          25.0668   40.5415   28.1910 C.ar    1  UNL1       -0.0047
      3 C          24.1172   41.4008   27.7066 C.ar    1  UNL1        0.0996
      4 S          22.6356   40.4100   27.7441 S.2     1  UNL1       -0.1056
      5 C          23.3070   38.9436   28.3787 C.ar    1  UNL1       -0.0851
      6 C          26.5044   40.9695   28.3366 C.3     1  UNL1        0.0319
      7 C          25.6145   38.2800   29.0647 C.2     1  UNL1        0.3396
      8 O          26.2921   37.6241   28.2969 O.2     1  UNL1       -0.2450
      9 O          25.7410   38.1027   30.3954 O.3     1  UNL1       -0.4455
     10 C          24.8519   36.4455   31.9423 C.3     1  UNL1        0.0513
     11 C          25.8996   36.7386   30.8665 C.3     1  UNL1        0.2089
     12 C          24.2783   42.7864   27.2674 C.2     1  UNL1        0.3469
     13 O          25.0432   43.0516   26.3592 O.2     1  UNL1       -0.2443
     14 O          23.5787   43.7706   27.8692 O.3     1  UNL1       -0.4451
     15 C          23.6996   43.8776   29.2891 C.3     1  UNL1        0.2089
     16 C          24.9782   44.6432   29.6357 C.3     1  UNL1        0.0513
     17 N          22.6661   37.7530   28.6538 N.am    1  UNL1       -0.6041
     18 C          21.3227   37.6771   28.5756 C.2     1  UNL1        0.1029
     19 O          20.7946   37.2943   27.5506 O.2     1  UNL1       -0.3113
     20 C          20.4893   38.0610   29.7404 C.ar    1  UNL1        0.1385
     21 C          20.8685   38.9042   30.8171 C.ar    1  UNL1        0.0638
     22 C          19.7565   38.9387   31.6120 C.ar    1  UNL1        0.1769
     23 O          18.8382   38.1603   31.0130 O.2     1  UNL1       -0.3534
     24 N          19.2571   37.6846   29.9838 N.ar    1  UNL1       -0.0757
     25 C          19.5973   39.6803   32.8807 C.ar    1  UNL1        0.0374
     26 C          18.3922   40.3226   33.1702 C.ar    1  UNL1        0.0054
     27 C          18.2474   41.0090   34.3575 C.ar    1  UNL1        0.0297
     28 C          19.2992   41.0703   35.2581 C.ar    1  UNL1        0.1401
     29 C          20.4996   40.4388   34.9733 C.ar    1  UNL1        0.0297
     30 C          20.6534   39.7456   33.7911 C.ar    1  UNL1        0.0054
     31 F          19.1539   41.7484   36.4175 F       1  UNL1       -0.2042
@<TRIPOS>UNITY_ATOM_ATTR
17 1
charge -1
@<TRIPOS>BOND
     1    10    11    1
     2    11     9    1
     3     9     7    1
     4     7     8    2
     5     7     1    1
     6     1     5   ar
     7     1     2   ar
     8     2     3   ar
     9     2     6    1
    10     3     4   ar
    11     3    12    1
    12     4     5   ar
    13     5    17    1
    14    17    18    1
    15    18    19    2
    16    18    20    1
    17    20    24   ar
    18    20    21   ar
    19    21    22   ar
    20    22    23   ar
    21    22    25    1
    22    23    24   ar
    23    25    30   ar
    24    25    26   ar
    25    26    27   ar
    26    27    28   ar
    27    28    29   ar
    28    28    31    1
    29    29    30   ar
    30    12    13    2
    31    12    14    1
    32    14    15    1
    33    15    16    1
@<TRIPOS>MOLECULE
ZINC01940829
 32 34 0 0 0
SMALL
GASTEIGER

@<TRIPOS>ATOM
      1 C          12.7297   37.1657   27.8152 C.ar    1  UNL1        0.1422
      2 C          14.0982   37.4150   27.7316 C.ar    1  UNL1        0.0372
      3 C          14.7270   38.1478   28.6972 C.ar    1  UNL1        0.0095
      4 C          13.9952   38.6394   29.7793 C.ar    1  UNL1        0.0769
      5 C          12.6149   38.3884   29.8747 C.ar    1  UNL1        0.1517
      6 C          11.9897   37.6467   28.8820 C.ar    1  UNL1        0.0745
      7 O          11.9181   38.8690   30.9241 O.2     1  UNL1       -0.4469
      8 C          12.4916   39.5873   31.8984 C.ar    1  UNL1        0.2201
      9 C          13.8058   39.8864   31.9066 C.ar    1  UNL1        0.2213
     10 C          14.6368   39.4287   30.8446 C.ar    1  UNL1        0.2359
     11 O          15.8300   39.6801   30.8181 O.2     1  UNL1       -0.2831
     12 O          12.1175   36.4401   26.8448 O.3     1  UNL1       -0.4678
     13 C          11.0282   37.0615   26.1598 C.3     1  UNL1        0.2634
     14 C          10.4861   36.1081   25.0931 C.3     1  UNL1        0.0596
     15 C          11.5065   38.3307   25.5027 C.2     1  UNL1        0.3575
     16 O          12.6303   38.3975   25.0642 O.2     1  UNL1       -0.2461
     17 O          10.6840   39.3868   25.4049 O.3     1  UNL1       -0.4498
     18 C          10.8286   40.2284   24.2305 C.3     1  UNL1        0.1691
     19 C          10.4208   39.4397   22.9844 C.3     1  UNL1        0.0473
     20 C           9.9530   42.2588   23.0672 C.3     1  UNL1        0.0038
     21 C           9.9309   41.4594   24.3715 C.3     1  UNL1        0.0436
     22 O          14.3351   40.6213   32.9228 O.3     1  UNL1       -0.4470
     23 C          15.6223   40.3776   33.2830 C.ar    1  UNL1        0.1456
     24 C          15.9853   39.1267   33.7618 C.ar    1  UNL1        0.0372
     25 C          17.2959   38.8799   34.1214 C.ar    1  UNL1       -0.0012
     26 C          18.2433   39.8816   34.0165 C.ar    1  UNL1       -0.0226
     27 C          17.8832   41.1306   33.5452 C.ar    1  UNL1       -0.0012
     28 C          16.5752   41.3810   33.1783 C.ar    1  UNL1        0.0372
     29 C          19.6710   39.6114   34.4161 C.3     1  UNL1        0.0189
     30 C          20.1891   40.7692   35.2716 C.3     1  UNL1        0.0044
     31 C          19.7380   38.3123   35.2215 C.3     1  UNL1        0.0044
     32 C          20.5354   39.4782   33.1607 C.3     1  UNL1        0.0044
@<TRIPOS>BOND
     1    20    21    1
     2    21    18    1
     3    18    19    1
     4    18    17    1
     5    17    15    1
     6    15    16    2
     7    15    13    1
     8    13    14    1
     9    13    12    1
    10    12     1    1
    11     1     6   ar
    12     1     2   ar
    13     2     3   ar
    14     3     4   ar
    15     4    10   ar
    16     4     5   ar
    17     5     6   ar
    18     5     7   ar
    19     7     8   ar
    20     8     9   ar
    21     9    10   ar
    22     9    22    1
    23    10    11    2
    24    22    23    1
    25    23    28   ar
    26    23    24   ar
    27    24    25   ar
    28    25    26   ar
    29    26    27   ar
    30    26    29    1
    31    27    28   ar
    32    29    30    1
    33    29    31    1
    34    29    32    1
@<TRIPOS>MOLECULE
ZINC10865351
 30 32 0 0 0
SMALL
GASTEIGER

@<TRIPOS>ATOM
      1 S          23.8562   37.6971   26.2802 S.3     1  UNL1       -0.0849
      2 C          25.3968   41.8371   27.0535 C.ar    1  UNL1        0.1413
      3 C          25.0740   41.4871   25.7485 C.ar    1  UNL1        0.0236
      4 C          24.5985   40.2116   25.5057 C.ar    1  UNL1        0.0269
      5 C          24.4605   39.3265   26.5712 C.ar    1  UNL1        0.1072
      6 N          24.7743   39.7002   27.8026 N.ar    1  UNL1       -0.2362
      7 C          25.2352   40.9091   28.0623 C.ar    1  UNL1        0.1192
      8 S          26.0072   43.4496   27.4171 S.O2    1  UNL1        0.0648
      9 O          26.9176   43.3048   28.4985 O.2     1  UNL1       -0.1527
     10 O          26.3842   44.0305   26.1763 O.2     1  UNL1       -0.1527
     11 N          24.7319   44.3386   27.9879 N.3     1  UNL1       -0.1555
     12 C          24.6515   46.7676   27.7137 C.3     1  UNL1        0.0206
     13 C          24.9738   45.6144   28.6662 C.3     1  UNL1        0.0958
     14 C          23.3620   43.8493   27.8146 C.3     1  UNL1        0.0958
     15 C          22.7393   43.5799   29.1859 C.3     1  UNL1        0.0206
     16 C          22.0756   37.9288   26.0230 C.3     1  UNL1        0.1513
     17 C          21.3480   37.7164   27.3256 C.ar    1  UNL1        0.2480
     18 N          21.2638   38.5676   28.3174 N.ar    1  UNL1       -0.1900
     19 C          20.5229   37.9493   29.2646 C.ar    1  UNL1        0.2033
     20 N          20.1975   36.7736   28.7938 N.ar    1  UNL1       -0.0560
     21 O          20.6630   36.6258   27.6836 O.2     1  UNL1       -0.3361
     22 C          20.1445   38.5038   30.5884 C.ar    1  UNL1        0.0391
     23 C          18.8205   38.4455   31.0183 C.ar    1  UNL1        0.0028
     24 C          18.4743   38.9623   32.2504 C.ar    1  UNL1       -0.0042
     25 C          19.4390   39.5373   33.0578 C.ar    1  UNL1       -0.0225
     26 C          20.7540   39.6026   32.6337 C.ar    1  UNL1       -0.0042
     27 C          21.1122   39.0842   31.4057 C.ar    1  UNL1        0.0028
     28 C          19.0549   40.1004   34.4019 C.3     1  UNL1        0.0224
     29 C          19.0549   41.6289   34.3334 C.3     1  UNL1        0.0047
     30 C          20.0627   39.6371   35.4558 C.3     1  UNL1        0.0047
@<TRIPOS>BOND
     1    12    13    1
     2    13    11    1
     3    11    14    1
     4    11     8    1
     5    14    15    1
     6     8     9    2
     7     8    10    2
     8     8     2    1
     9     2     7   ar
    10     2     3   ar
    11     3     4   ar
    12     4     5   ar
    13     5     6   ar
    14     5     1    1
    15     6     7   ar
    16     1    16    1
    17    16    17    1
    18    17    21   ar
    19    17    18   ar
    20    18    19   ar
    21    19    20   ar
    22    19    22    1
    23    20    21   ar
    24    22    27   ar
    25    22    23   ar
    26    23    24   ar
    27    24    25   ar
    28    25    26   ar
    29    25    28    1
    30    26    27   ar
    31    28    29    1
    32    28    30    1
@<TRIPOS>MOLECULE
ZINC10460058
 29 31 0 0 0
SMALL
GASTEIGER

@<TRIPOS>ATOM
      1 C          24.6584   46.4699   27.4447 C.2     1  UNL1        0.3288
      2 O          25.5772   46.4463   26.6602 O.2     1  UNL1       -0.2491
      3 O          23.8333   47.5280   27.4801 O.3     1  UNL1       -0.4428
      4 C          24.2313   48.7001   26.7211 C.3     1  UNL1        0.2381
      5 C          21.0428   50.5721   27.5368 C.ar    1  UNL1        0.0347
      6 C          21.4724   51.9012   27.4365 C.ar    1  UNL1        0.0059
      7 C          22.7676   52.1770   27.1019 C.ar    1  UNL1        0.0368
      8 C          23.6671   51.1416   26.8708 C.ar    1  UNL1        0.1382
      9 C          23.2526   49.8180   26.9731 C.ar    1  UNL1        0.0553
     10 C          21.9480   49.5292   27.3041 C.ar    1  UNL1        0.0052
     11 C          19.2627   50.0850   29.3353 C.3     1  UNL1        0.0773
     12 C          19.6493   50.2728   27.8909 C.2     1  UNL1        0.1735
     13 O          18.8097   50.1767   27.0209 O.2     1  UNL1       -0.2913
     14 O          24.9534   51.4238   26.5449 O.3     1  UNL1       -0.4716
     15 C          25.1746   52.1069   25.3093 C.3     1  UNL1        0.2525
     16 C          24.4389   45.3115   28.3832 C.3     1  UNL1        0.1734
     17 S          25.8803   44.2175   28.3386 S.3     1  UNL1       -0.0748
     18 C          25.1197   42.7322   27.7726 C.ar    1  UNL1        0.1588
     19 N          24.2652   41.9569   28.3906 N.ar    1  UNL1       -0.1511
     20 N          23.7745   40.8287   27.7744 N.ar    1  UNL1       -0.2160
     21 C          24.2035   40.5329   26.5219 C.ar    1  UNL1        0.1497
     22 S          23.7864   39.2143   25.5125 S.2     1  UNL1       -0.0229
     23 S          25.3212   41.8911   26.2104 S.2     1  UNL1       -0.0340
     24 C          22.8564   40.0003   28.4285 C.ar    1  UNL1        0.0840
     25 C          21.5120   40.3479   28.4705 C.ar    1  UNL1        0.0192
     26 C          20.6076   39.5255   29.1130 C.ar    1  UNL1        0.0015
     27 C          21.0407   38.3624   29.7234 C.ar    1  UNL1        0.0001
     28 C          22.3791   38.0161   29.6881 C.ar    1  UNL1        0.0015
     29 C          23.2881   38.8313   29.0428 C.ar    1  UNL1        0.0192
@<TRIPOS>BOND
     1    11    12    1
     2    12    13    2
     3    12     5    1
     4     5    10   ar
     5     5     6   ar
     6     6     7   ar
     7     7     8   ar
     8     8     9   ar
     9     8    14    1
    10     9    10   ar
    11     9     4    1
    12     4     3    1
    13     3     1    1
    14     1     2    2
    15     1    16    1
    16    16    17    1
    17    17    18    1
    18    18    23   ar
    19    18    19   ar
    20    19    20   ar
    21    20    21   ar
    22    20    24    1
    23    21    22    2
    24    21    23   ar
    25    24    29   ar
    26    24    25   ar
    27    25    26   ar
    28    26    27   ar
    29    27    28   ar
    30    28    29   ar
    31    14    15    1
@<TRIPOS>MOLECULE
ZINC10414473
 32 34 0 0 0
SMALL
GASTEIGER

@<TRIPOS>ATOM
      1 C          13.4861   37.9569   28.3312 C.2     1  UNL1        0.0834
      2 C          14.7789   37.6792   28.6240 C.2     1  UNL1        0.0263
      3 C          15.4099   38.2833   29.8009 C.ar    1  UNL1        0.0900
      4 C          14.6413   38.8547   30.7995 C.ar    1  UNL1        0.0573
      5 S          15.8608   39.3966   31.9104 S.2     1  UNL1       -0.0503
      6 C          17.2894   38.8405   30.9958 C.ar    1  UNL1        0.1727
      7 N          16.7385   38.2889   29.9350 N.ar    1  UNL1       -0.2234
      8 N          18.6355   38.9551   31.3222 N.am    1  UNL1       -0.2169
      9 C          19.5778   38.7228   30.3870 C.2     1  UNL1        0.2350
     10 O          19.2521   38.5019   29.2399 O.2     1  UNL1       -0.2741
     11 C          21.0361   38.7376   30.7667 C.3     1  UNL1        0.0956
     12 C          19.0129   39.3119   32.6232 C.ar    1  UNL1        0.0599
     13 C          19.2245   40.6459   32.9450 C.ar    1  UNL1        0.0153
     14 C          19.5914   40.9950   34.2300 C.ar    1  UNL1        0.0013
     15 C          19.7583   40.0165   35.1929 C.ar    1  UNL1        0.0001
     16 C          19.5539   38.6865   34.8739 C.ar    1  UNL1        0.0013
     17 C          19.1817   38.3317   33.5921 C.ar    1  UNL1        0.0153
     18 C          12.8773   37.3742   27.1959 C.2     1  UNL1        0.3418
     19 O          12.7608   36.1651   27.1214 O.2     1  UNL1       -0.2449
     20 O          12.4255   38.1588   26.1949 O.3     1  UNL1       -0.4412
     21 C          11.0303   38.0872   25.8938 C.3     1  UNL1        0.2300
     22 C          10.3113   39.2833   26.5206 C.3     1  UNL1        0.0560
     23 C          10.8372   38.1116   24.3994 C.2     1  UNL1        0.2128
     24 O          10.7690   37.0716   23.7797 O.2     1  UNL1       -0.2875
     25 C          10.5327   41.8191   22.3613 C.ar    1  UNL1       -0.0222
     26 C          10.9436   40.6889   21.6764 C.ar    1  UNL1       -0.0042
     27 C          11.0497   39.4810   22.3330 C.ar    1  UNL1        0.0026
     28 C          10.7311   39.3978   23.6922 C.ar    1  UNL1        0.0383
     29 C          10.3116   40.5434   24.3760 C.ar    1  UNL1        0.0026
     30 C          10.2151   41.7449   23.7064 C.ar    1  UNL1       -0.0042
     31 C          11.0714   43.0138   20.2561 C.3     1  UNL1        0.0050
     32 C          10.4244   43.1363   21.6372 C.3     1  UNL1        0.0264
@<TRIPOS>BOND
     1    31    32    1
     2    32    25    1
     3    25    30   ar
     4    25    26   ar
     5    26    27   ar
     6    27    28   ar
     7    28    29   ar
     8    28    23    1
     9    29    30   ar
    10    23    24    2
    11    23    21    1
    12    21    22    1
    13    21    20    1
    14    20    18    1
    15    18    19    2
    16    18     1    1
    17     1     2    2
    18     2     3    1
    19     3     7   ar
    20     3     4   ar
    21     4     5   ar
    22     5     6   ar
    23     6     7   ar
    24     6     8    1
    25     8    12    1
    26     8     9   am
    27    12    17   ar
    28    12    13   ar
    29    13    14   ar
    30    14    15   ar
    31    15    16   ar
    32    16    17   ar
    33     9    10    2
    34     9    11    1
@<TRIPOS>MOLECULE
ZINC23904557
 31 33 0 0 0
SMALL
GASTEIGER

@<TRIPOS>ATOM
      1 C          24.0574   39.1701   28.3382 C.ar    1  UNL1        0.0003
      2 C          23.8515   40.1242   27.3367 C.ar    1  UNL1        0.0014
      3 C          24.8058   41.0922   27.1050 C.ar    1  UNL1        0.0199
      4 C          25.9651   41.1209   27.8605 C.ar    1  UNL1        0.1222
      5 C          26.1786   40.1770   28.8500 C.ar    1  UNL1        0.0199
      6 C          25.2315   39.2059   29.0973 C.ar    1  UNL1        0.0014
      7 S          27.1787   42.3616   27.5563 S.O2    1  UNL1        0.0633
      8 O          27.1775   42.5960   26.1548 O.2     1  UNL1       -0.1528
      9 O          28.3477   41.9678   28.2618 O.2     1  UNL1       -0.1528
     10 N          26.6427   43.7565   28.2700 N.3     1  UNL1       -0.1555
     11 C          25.8088   43.7047   29.4359 C.3     1  UNL1        0.0958
     12 C          24.2836   43.6212   29.1791 C.3     1  UNL1        0.0191
     13 C          23.8857   44.5665   28.0191 C.3     1  UNL1        0.0015
     14 C          24.6595   45.8510   28.0896 C.3     1  UNL1        0.0015
     15 C          25.8188   45.6803   27.1138 C.3     1  UNL1        0.0191
     16 C          27.0213   45.0959   27.7065 C.3     1  UNL1        0.0958
     17 C          21.7490   38.3694   28.2969 C.2     1  UNL1        0.0819
     18 C          23.0442   38.1332   28.5916 C.2     1  UNL1        0.0067
     19 C          20.7422   37.3392   28.5486 C.2     1  UNL1        0.3419
     20 O          20.4614   36.5376   27.6779 O.2     1  UNL1       -0.2449
     21 O          20.1248   37.2777   29.7464 O.3     1  UNL1       -0.4350
     22 C          19.9609   38.5073   30.4559 C.3     1  UNL1        0.2956
     23 C          16.6560   39.2336   31.6554 C.ar    1  UNL1        0.1797
     24 N          17.9867   39.2171   31.8498 N.ar    1  UNL1       -0.1918
     25 C          18.4988   38.7291   30.7456 C.ar    1  UNL1        0.2810
     26 O          17.4758   38.4608   29.9285 O.2     1  UNL1       -0.3334
     27 N          16.4303   38.7566   30.4680 N.ar    1  UNL1       -0.0605
     28 C          14.2335   39.2406   32.1850 C.3     1  UNL1        0.0077
     29 C          15.6172   39.7122   32.6366 C.3     1  UNL1        0.0557
     30 C          15.9233   39.1410   34.0226 C.3     1  UNL1        0.0077
     31 C          15.6400   41.2407   32.6985 C.3     1  UNL1        0.0077
@<TRIPOS>BOND
     1    28    29    1
     2    29    30    1
     3    29    31    1
     4    29    23    1
     5    23    27   ar
     6    23    24   ar
     7    24    25   ar
     8    25    26   ar
     9    25    22    1
    10    26    27   ar
    11    22    21    1
    12    21    19    1
    13    19    20    2
    14    19    17    1
    15    17    18    2
    16    18     1    1
    17     1     6   ar
    18     1     2   ar
    19     2     3   ar
    20     3     4   ar
    21     4     5   ar
    22     4     7    1
    23     5     6   ar
    24     7     8    2
    25     7     9    2
    26     7    10    1
    27    10    16    1
    28    10    11    1
    29    11    12    1
    30    12    13    1
    31    13    14    1
    32    14    15    1
    33    15    16    1
@<TRIPOS>MOLECULE
ZINC20048613
 29 31 0 0 0
SMALL
GASTEIGER

@<TRIPOS>ATOM
      1 N          17.5958   39.6032   32.3515 N.ar    1  UNL1       -0.2757
      2 C          16.2506   39.5716   32.3644 C.ar    1  UNL1        0.2639
      3 O          15.6308   40.0456   33.3011 O.2     1  UNL1       -0.2669
      4 C          15.5571   38.9752   31.2646 C.ar    1  UNL1        0.0763
      5 C          14.1280   38.8226   31.0522 C.ar    1  UNL1       -0.0132
      6 C          13.6922   38.2236   29.9342 C.ar    1  UNL1        0.0053
      7 S          15.1969   37.8138   29.0703 S.2     1  UNL1       -0.0725
      8 C          16.3684   38.4592   30.2364 C.ar    1  UNL1        0.1168
      9 N          17.6934   38.5228   30.2855 N.ar    1  UNL1       -0.2158
     10 C          18.3062   39.0830   31.3087 C.ar    1  UNL1        0.1743
     11 C          12.2704   37.9600   29.5097 C.3     1  UNL1        0.0379
     12 C          13.1466   39.3320   32.0761 C.3     1  UNL1        0.0314
     13 C          18.3111   40.2127   33.4753 C.3     1  UNL1        0.1110
     14 C          18.7688   39.1189   34.4422 C.3     1  UNL1        0.0247
     15 C          20.0603   41.0888   35.2751 C.3     1  UNL1        0.0001
     16 C          20.0525   39.5643   35.1455 C.3     1  UNL1        0.0020
     17 S          20.0666   39.1547   31.3345 S.3     1  UNL1       -0.0692
     18 C          20.4391   38.2899   29.7887 C.3     1  UNL1        0.1308
     19 C          21.9320   38.1495   29.6388 C.2     1  UNL1        0.1819
     20 O          22.6237   37.9826   30.6145 O.2     1  UNL1       -0.2936
     21 C          22.5617   38.2175   28.2714 C.3     1  UNL1        0.1951
     22 C          23.0173   39.6278   27.9978 C.ar    1  UNL1        0.1089
     23 N          22.5585   40.7536   28.4936 N.ar    1  UNL1       -0.2455
     24 C          23.0749   41.9156   28.1520 C.ar    1  UNL1        0.0661
     25 C          24.0956   41.9299   27.2574 C.ar    1  UNL1        0.0513
     26 S          24.2786   40.1809   26.9400 S.2     1  UNL1       -0.0692
     27 C          22.5415   43.1987   28.7351 C.3     1  UNL1        0.0527
     28 C          21.5749   37.8150   27.2561 C.1     1  UNL1        0.0863
     29 N          20.8132   37.5045   26.4725 N.1     1  UNL1       -0.1950
@<TRIPOS>BOND
     1    15    16    1
     2    16    14    1
     3    14    13    1
     4    13     1    1
     5     1    10   ar
     6     1     2   ar
     7     2     3    2
     8     2     4   ar
     9     4     8   ar
    10     4     5   ar
    11     5     6   ar
    12     5    12    1
    13     6     7   ar
    14     6    11    1
    15     7     8   ar
    16     8     9   ar
    17     9    10   ar
    18    10    17    1
    19    17    18    1
    20    18    19    1
    21    19    20    2
    22    19    21    1
    23    21    28    1
    24    21    22    1
    25    28    29    3
    26    22    26   ar
    27    22    23   ar
    28    23    24   ar
    29    24    25   ar
    30    24    27    1
    31    25    26   ar
@<TRIPOS>MOLECULE
ZINC26087210
 28 29 0 0 0
SMALL
GASTEIGER

@<TRIPOS>ATOM
      1 C          22.2409   37.7897   28.9573 C.ar    1  UNL1        0.0770
      2 C          23.1413   37.1958   29.8442 C.ar    1  UNL1        0.0065
      3 C          24.4133   37.7118   29.9792 C.ar    1  UNL1        0.0016
      4 C          24.7944   38.8220   29.2462 C.ar    1  UNL1        0.0209
      5 C          23.9057   39.4185   28.3696 C.ar    1  UNL1        0.1340
      6 C          22.6320   38.9094   28.2209 C.ar    1  UNL1        0.0273
      7 S          24.4014   40.8317   27.4413 S.O2    1  UNL1        0.1142
      8 O          25.6662   41.2299   27.9520 O.2     1  UNL1       -0.1419
      9 O          24.1999   40.5093   26.0721 O.2     1  UNL1       -0.1419
     10 O          23.4262   41.9523   27.7725 O.3     1  UNL1       -0.2115
     11 C          23.9750   43.2633   27.6233 C.3     1  UNL1        0.2772
     12 C          23.6993   44.0786   28.8884 C.3     1  UNL1        0.4273
     13 F          24.7909   43.9750   29.7572 F       1  UNL1       -0.1673
     14 F          23.5024   45.4203   28.5448 F       1  UNL1       -0.1673
     15 F          22.5523   43.5857   29.5199 F       1  UNL1       -0.1673
     16 C          20.8788   37.2390   28.8032 C.2     1  UNL1        0.3417
     17 O          20.5770   36.6391   27.7910 O.2     1  UNL1       -0.2449
     18 O          19.9712   37.4024   29.7852 O.3     1  UNL1       -0.4368
     19 C          19.4999   38.7539   30.0290 C.3     1  UNL1        0.2769
     20 C          18.2987   38.7107   30.9382 C.2     1  UNL1        0.2172
     21 O          17.3109   38.0872   30.6092 O.2     1  UNL1       -0.2874
     22 C          20.5360   40.3913   35.2013 C.3     1  UNL1        0.0381
     23 C          19.4507   40.1593   34.1818 C.ar    1  UNL1        0.0074
     24 C          19.5256   39.4839   33.0199 C.ar    1  UNL1        0.0053
     25 C          18.3257   39.4157   32.2205 C.ar    1  UNL1        0.0406
     26 C          17.2004   40.0432   32.7260 C.ar    1  UNL1        0.0102
     27 S          17.7562   40.7058   34.2261 S.2     1  UNL1       -0.0955
     28 C          15.8241   40.1287   32.1181 C.3     1  UNL1        0.0382
@<TRIPOS>BOND
     1    22    23    1
     2    23    27   ar
     3    23    24   ar
     4    24    25   ar
     5    25    26   ar
     6    25    20    1
     7    26    27   ar
     8    26    28    1
     9    20    21    2
    10    20    19    1
    11    19    18    1
    12    18    16    1
    13    16    17    2
    14    16     1    1
    15     1     6   ar
    16     1     2   ar
    17     2     3   ar
    18     3     4   ar
    19     4     5   ar
    20     5     6   ar
    21     5     7    1
    22     7     8    2
    23     7     9    2
    24     7    10    1
    25    10    11    1
    26    11    12    1
    27    12    13    1
    28    12    14    1
    29    12    15    1
@<TRIPOS>MOLECULE
ZINC18183100
 30 32 0 0 0
SMALL
GASTEIGER

@<TRIPOS>ATOM
      1 N          19.9400   38.3240   28.9319 N.am    1  UNL1       -0.5887
      2 C          19.3512   39.1964   32.8384 C.ar    1  UNL1        0.1580
      3 N          18.6591   38.2118   32.2842 N.ar    1  UNL1       -0.1363
      4 N          18.8020   37.8966   31.0714 N.ar    1  UNL1       -0.1652
      5 C          19.6512   38.5291   30.2779 C.ar    1  UNL1        0.0183
      6 S          20.3282   39.7189   31.4319 S.2     1  UNL1       -0.0641
      7 S          19.3237   39.8109   34.4896 S.3     1  UNL1       -0.0819
      8 C          18.1060   41.1545   34.4376 C.3     1  UNL1        0.0904
      9 C          13.3725   39.3583   31.6519 C.3     1  UNL1        0.0310
     10 C          14.6068   39.8269   32.3785 C.ar    1  UNL1       -0.0219
     11 C          15.1183   39.0810   33.4238 C.ar    1  UNL1       -0.0046
     12 C          16.2506   39.5107   34.0904 C.ar    1  UNL1       -0.0037
     13 C          16.8717   40.6860   33.7111 C.ar    1  UNL1       -0.0109
     14 C          16.3574   41.4343   32.6688 C.ar    1  UNL1       -0.0037
     15 C          15.2276   41.0023   31.9995 C.ar    1  UNL1       -0.0046
     16 C          20.9584   37.5158   28.5768 C.2     1  UNL1        0.0827
     17 O          20.7291   36.4481   28.0417 O.2     1  UNL1       -0.3129
     18 C          22.3516   37.9266   28.8370 C.ar    1  UNL1        0.0185
     19 C          23.1671   37.1513   29.6654 C.ar    1  UNL1        0.0005
     20 C          24.4676   37.5365   29.9077 C.ar    1  UNL1        0.0192
     21 C          24.9728   38.6913   29.3256 C.ar    1  UNL1        0.1687
     22 C          24.1630   39.4725   28.5027 C.ar    1  UNL1        0.1721
     23 C          22.8583   39.0920   28.2555 C.ar    1  UNL1        0.0413
     24 O          24.6592   40.6061   27.9386 O.3     1  UNL1       -0.4684
     25 C          24.8291   40.6040   26.5197 C.3     1  UNL1        0.2526
     26 O          26.2571   39.0637   29.5630 O.3     1  UNL1       -0.4687
     27 C          27.2437   38.6227   28.6281 C.3     1  UNL1        0.2526
     28 C          25.3456   36.6991   30.8015 C.3     1  UNL1        0.0555
     29 C          24.6499   36.4718   32.1188 C.2     1  UNL1       -0.0213
     30 C          25.1027   35.5671   32.9512 C.2     1  UNL1       -0.0046
@<TRIPOS>UNITY_ATOM_ATTR
1 1
charge -1
@<TRIPOS>BOND
     1     9    10    1
     2    10    15   ar
     3    10    11   ar
     4    11    12   ar
     5    12    13   ar
     6    13    14   ar
     7    13     8    1
     8    14    15   ar
     9     8     7    1
    10     7     2    1
    11     2     6   ar
    12     2     3   ar
    13     3     4   ar
    14     4     5   ar
    15     5     6   ar
    16     5     1    1
    17     1    16    1
    18    16    17    2
    19    16    18    1
    20    18    23   ar
    21    18    19   ar
    22    19    20   ar
    23    20    21   ar
    24    20    28    1
    25    21    22   ar
    26    21    26    1
    27    22    23   ar
    28    22    24    1
    29    24    25    1
    30    26    27    1
    31    28    29    1
    32    29    30    2
@<TRIPOS>MOLECULE
ZINC11226998
 29 30 0 0 0
SMALL
GASTEIGER

@<TRIPOS>ATOM
      1 C          25.8493   40.2001   28.4957 C.ar    1  UNL1        0.0258
      2 C          24.4654   40.0506   28.3456 C.ar    1  UNL1        0.0417
      3 C          23.6842   41.1496   28.0493 C.ar    1  UNL1        0.1727
      4 C          24.2736   42.4049   27.8999 C.ar    1  UNL1        0.1796
      5 C          25.6457   42.5541   28.0485 C.ar    1  UNL1        0.0643
      6 C          26.4330   41.4626   28.3443 C.ar    1  UNL1        0.1461
      7 N          27.8958   41.6257   28.5014 N.pl3   1  UNL1        0.0578
      8 O          28.6147   41.6524   27.5185 O.2     1  UNL1       -0.1261
      9 O          28.3807   41.7333   29.6135 O.2     1  UNL1       -0.1261
     10 C          26.2890   38.1447   29.7404 C.2     1  UNL1        0.0580
     11 C          26.6875   39.0328   28.8053 C.2     1  UNL1        0.0064
     12 N          26.5701   35.8828   30.5957 N.am    1  UNL1       -0.2714
     13 C          27.1229   36.9833   30.0485 C.2     1  UNL1        0.2494
     14 O          28.3164   37.0108   29.8106 O.2     1  UNL1       -0.2699
     15 C          24.9151   35.8584   32.3962 C.3     1  UNL1        0.0233
     16 C          25.1337   35.8497   30.8820 C.3     1  UNL1        0.0941
     17 C          27.4055   34.7196   30.9044 C.3     1  UNL1        0.1269
     18 C          27.2950   33.7117   29.7894 C.ar    1  UNL1        0.0281
     19 C          27.1968   32.3624   29.8658 C.ar    1  UNL1        0.0053
     20 C          27.1046   31.6293   28.6969 C.ar    1  UNL1        0.0182
     21 C          27.1152   32.2835   27.5087 C.ar    1  UNL1        0.0867
     22 S          27.2516   33.9867   28.0260 S.2     1  UNL1       -0.0782
     23 CL         27.0146   31.6337   25.9020 Cl      1  UNL1       -0.0752
     24 O          22.3396   41.0081   27.9028 O.3     1  UNL1       -0.4684
     25 C          21.6343   40.3704   28.9696 C.3     1  UNL1        0.2526
     26 O          23.5026   43.4846   27.6088 O.3     1  UNL1       -0.4205
     27 C          23.1085   44.3143   28.7035 C.3     1  UNL1        0.5087
     28 F          22.6140   43.5151   29.7399 F       1  UNL1       -0.1550
     29 F          24.2140   45.0396   29.1607 F       1  UNL1       -0.1550
@<TRIPOS>BOND
     1    15    16    1
     2    16    12    1
     3    12    17    1
     4    12    13   am
     5    17    18    1
     6    18    22   ar
     7    18    19   ar
     8    19    20   ar
     9    20    21   ar
    10    21    22   ar
    11    21    23    1
    12    13    14    2
    13    13    10    1
    14    10    11    2
    15    11     1    1
    16     1     6   ar
    17     1     2   ar
    18     2     3   ar
    19     3     4   ar
    20     3    24    1
    21     4     5   ar
    22     4    26    1
    23     5     6   ar
    24     6     7    1
    25     7     8    2
    26     7     9    2
    27    26    27    1
    28    27    28    1
    29    27    29    1
    30    24    25    1
@<TRIPOS>MOLECULE
ZINC22411676
 31 33 0 0 0
SMALL
GASTEIGER

@<TRIPOS>ATOM
      1 C          25.9109   41.5890   27.9674 C.ar    1  UNL1        0.1510
      2 C          24.8468   41.7153   27.0708 C.ar    1  UNL1        0.1123
      3 N          23.9562   40.7420   26.9668 N.ar    1  UNL1       -0.2203
      4 C          24.0448   39.6412   27.6944 C.ar    1  UNL1        0.1779
      5 N          25.0569   39.4533   28.5872 N.ar    1  UNL1       -0.2540
      6 C          25.9994   40.4063   28.7508 C.ar    1  UNL1        0.2739
      7 O          26.9075   40.2540   29.5486 O.2     1  UNL1       -0.2663
      8 C          25.1164   38.2733   29.3399 C.ar    1  UNL1        0.0683
      9 C          24.3417   38.1383   30.4846 C.ar    1  UNL1        0.0173
     10 C          24.4066   36.9760   31.2275 C.ar    1  UNL1       -0.0031
     11 C          25.2329   35.9422   30.8258 C.ar    1  UNL1       -0.0257
     12 C          26.0057   36.0737   29.6869 C.ar    1  UNL1       -0.0243
     13 C          25.9496   37.2361   28.9428 C.ar    1  UNL1        0.0131
     14 C          26.9098   34.9474   29.2566 C.3     1  UNL1        0.0307
     15 C          25.2966   34.6727   31.6353 C.3     1  UNL1        0.0307
     16 C          26.9100   42.6537   28.1005 C.2     1  UNL1        0.3475
     17 O          27.9617   42.5800   27.4945 O.2     1  UNL1       -0.2447
     18 O          26.6626   43.7150   28.8951 O.3     1  UNL1       -0.4453
     19 C          24.7007   45.1516   29.0268 C.3     1  UNL1        0.0513
     20 C          25.3269   43.8226   29.4542 C.3     1  UNL1        0.2089
     21 S          22.8234   38.3855   27.5041 S.3     1  UNL1       -0.0686
     22 C          21.3907   39.2298   28.2185 C.3     1  UNL1        0.1339
     23 C          20.5743   38.2461   29.0164 C.2     1  UNL1        0.1843
     24 O          20.3804   37.1292   28.5861 O.2     1  UNL1       -0.2904
     25 C          20.0121   38.6411   30.3179 C.ar    1  UNL1        0.0356
     26 C          20.8511   39.1162   31.3309 C.ar    1  UNL1        0.0025
     27 C          20.3162   39.4888   32.5459 C.ar    1  UNL1       -0.0042
     28 C          18.9541   39.3831   32.7681 C.ar    1  UNL1       -0.0218
     29 C          18.1178   38.9094   31.7722 C.ar    1  UNL1       -0.0042
     30 C          18.6368   38.5377   30.5500 C.ar    1  UNL1        0.0025
     31 C          18.3787   39.7867   34.1011 C.3     1  UNL1        0.0310
@<TRIPOS>BOND
     1    19    20    1
     2    20    18    1
     3    18    16    1
     4    16    17    2
     5    16     1    1
     6     1     6   ar
     7     1     2   ar
     8     2     3   ar
     9     3     4   ar
    10     4     5   ar
    11     4    21    1
    12     5     6   ar
    13     5     8    1
    14     6     7    2
    15     8    13   ar
    16     8     9   ar
    17     9    10   ar
    18    10    11   ar
    19    11    12   ar
    20    11    15    1
    21    12    13   ar
    22    12    14    1
    23    21    22    1
    24    22    23    1
    25    23    24    2
    26    23    25    1
    27    25    30   ar
    28    25    26   ar
    29    26    27   ar
    30    27    28   ar
    31    28    29   ar
    32    28    31    1
    33    29    30   ar
@<TRIPOS>MOLECULE
ZINC22083050
 32 35 0 0 0
SMALL
GASTEIGER

@<TRIPOS>ATOM
      1 N          10.8967   38.4402   25.5168 N.4     1  UNL1        0.2986
      2 H          11.5892   39.1026   25.8662 H       1  UNL1        0.2093
      3 C           8.5206   38.1959   24.9766 C.3     1  UNL1        0.0671
      4 C           9.5660   39.0276   25.7224 C.3     1  UNL1        0.1081
      5 C          11.0437   37.1911   26.2758 C.3     1  UNL1        0.1351
      6 C          12.0319   37.3966   27.3948 C.ar    1  UNL1        0.0359
      7 C          13.3886   37.3718   27.1301 C.ar    1  UNL1        0.0047
      8 C          14.2992   37.5592   28.1532 C.ar    1  UNL1        0.0399
      9 C          13.8528   37.7724   29.4475 C.ar    1  UNL1        0.1727
     10 C          12.4873   37.7916   29.7149 C.ar    1  UNL1        0.1723
     11 C          11.5799   37.6088   28.6839 C.ar    1  UNL1        0.0414
     12 O          12.0444   37.9949   30.9846 O.3     1  UNL1       -0.4684
     13 C          12.1411   39.3240   31.5005 C.3     1  UNL1        0.2526
     14 O          14.7472   37.9570   30.4551 O.3     1  UNL1       -0.4670
     15 C          15.8369   38.8456   30.2007 C.3     1  UNL1        0.2385
     16 C          16.5456   39.1549   31.4942 C.ar    1  UNL1        0.0507
     17 C          16.0271   39.5885   32.6691 C.ar    1  UNL1        0.0063
     18 C          16.8774   39.8082   33.7366 C.ar    1  UNL1        0.0073
     19 C          18.2045   39.5834   33.5769 C.ar    1  UNL1        0.0352
     20 S          18.2850   39.0378   31.8790 S.2     1  UNL1       -0.0871
     21 C          11.1611   38.2225   24.0883 C.3     1  UNL1        0.2461
     22 N          11.4268   39.5087   23.4393 N.ar    1  UNL1       -0.1467
     23 C          10.8123   39.8171   22.2728 C.ar    1  UNL1        0.2836
     24 O          10.0357   39.0437   21.7429 O.2     1  UNL1       -0.2652
     25 C          11.1205   41.1234   21.6710 C.ar    1  UNL1        0.0772
     26 C          10.5389   41.5328   20.4725 C.ar    1  UNL1        0.0064
     27 C          10.8596   42.7654   19.9475 C.ar    1  UNL1        0.0003
     28 C          11.7545   43.6006   20.6034 C.ar    1  UNL1        0.0016
     29 C          12.3394   43.2154   21.7883 C.ar    1  UNL1        0.0211
     30 C          12.0310   41.9695   22.3407 C.ar    1  UNL1        0.1091
     31 N          12.5881   41.5576   23.5067 N.ar    1  UNL1       -0.1299
     32 N          12.3096   40.4181   24.0277 N.ar    1  UNL1       -0.0567
@<TRIPOS>UNITY_ATOM_ATTR
1 1
charge 1
@<TRIPOS>BOND
     1     3     4    1
     2     4     1    1
     3     1     5    1
     4     1    21    1
     5     5     6    1
     6     6    11   ar
     7     6     7   ar
     8     7     8   ar
     9     8     9   ar
    10     9    10   ar
    11     9    14    1
    12    10    11   ar
    13    10    12    1
    14    12    13    1
    15    14    15    1
    16    15    16    1
    17    16    20   ar
    18    16    17   ar
    19    17    18   ar
    20    18    19   ar
    21    19    20   ar
    22    21    22    1
    23    22    32   ar
    24    22    23   ar
    25    23    24    2
    26    23    25   ar
    27    25    30   ar
    28    25    26   ar
    29    26    27   ar
    30    27    28   ar
    31    28    29   ar
    32    29    30   ar
    33    30    31   ar
    34    31    32   ar
    35     1     2    1
@<TRIPOS>MOLECULE
ZINC31280025
 31 32 0 0 0
SMALL
GASTEIGER

@<TRIPOS>ATOM
      1 C          11.4485   37.1497   26.4714 C.2     1  UNL1        0.3438
      2 O          10.7913   36.2714   26.9937 O.2     1  UNL1       -0.2448
      3 C          10.9492   37.8209   25.2558 C.ar    1  UNL1        0.1043
      4 C          10.7853   39.2083   25.2368 C.ar    1  UNL1        0.0286
      5 C          10.3181   39.8289   24.0981 C.ar    1  UNL1        0.1225
      6 C          10.0057   39.0814   22.9751 C.ar    1  UNL1        0.0222
      7 C          10.1693   37.7091   22.9820 C.ar    1  UNL1        0.0312
      8 C          10.6371   37.0714   24.1167 C.ar    1  UNL1        0.1464
      9 F          10.7924   35.7294   24.1248 F       1  UNL1       -0.2040
     10 S          10.1108   41.5784   24.0739 S.O2    1  UNL1        0.0633
     11 O          10.5990   42.0625   25.3175 O.2     1  UNL1       -0.1528
     12 O           8.7838   41.8240   23.6287 O.2     1  UNL1       -0.1528
     13 N          11.1203   42.1749   22.9046 N.3     1  UNL1       -0.1554
     14 C          12.4587   42.6493   23.2647 C.3     1  UNL1        0.1148
     15 C          10.6749   42.2284   21.5099 C.3     1  UNL1        0.0797
     16 C          10.7102   43.6769   21.0184 C.3     1  UNL1        0.0192
     17 C          11.6034   41.3736   20.6450 C.3     1  UNL1        0.0192
     18 O          12.6330   37.5109   27.0021 O.3     1  UNL1       -0.4411
     19 C          12.9819   36.9353   28.2887 C.3     1  UNL1        0.2300
     20 C          14.4778   36.6156   28.3157 C.3     1  UNL1        0.0560
     21 C          12.6587   37.9194   29.3834 C.2     1  UNL1        0.2125
     22 O          11.5232   38.3219   29.5211 O.2     1  UNL1       -0.2875
     23 C          16.8097   39.7646   32.9066 C.3     1  UNL1        0.0307
     24 C          15.7215   39.2812   31.9828 C.ar    1  UNL1       -0.0261
     25 C          14.4022   39.3045   32.4016 C.ar    1  UNL1       -0.0087
     26 C          13.4005   38.8690   31.5604 C.ar    1  UNL1       -0.0193
     27 C          13.7214   38.3919   30.2852 C.ar    1  UNL1        0.0340
     28 C          15.0563   38.3716   29.8697 C.ar    1  UNL1       -0.0019
     29 C          16.0463   38.8161   30.7207 C.ar    1  UNL1       -0.0257
     30 C          17.4858   38.7946   30.2752 C.3     1  UNL1        0.0307
     31 C          11.9644   38.9010   32.0158 C.3     1  UNL1        0.0311
@<TRIPOS>BOND
     1    23    24    1
     2    24    29   ar
     3    24    25   ar
     4    25    26   ar
     5    26    27   ar
     6    26    31    1
     7    27    28   ar
     8    27    21    1
     9    28    29   ar
    10    29    30    1
    11    21    22    2
    12    21    19    1
    13    19    20    1
    14    19    18    1
    15    18     1    1
    16     1     2    2
    17     1     3    1
    18     3     8   ar
    19     3     4   ar
    20     4     5   ar
    21     5     6   ar
    22     5    10    1
    23     6     7   ar
    24     7     8   ar
    25     8     9    1
    26    10    11    2
    27    10    12    2
    28    10    13    1
    29    13    14    1
    30    13    15    1
    31    15    16    1
    32    15    17    1
@<TRIPOS>MOLECULE
ZINC04065939
 32 34 0 0 0
SMALL
GASTEIGER

@<TRIPOS>ATOM
      1 C          24.6632   39.3724   26.1904 C.3     1  UNL1        0.1430
      2 C          24.4746   40.3394   25.2760 C.2     1  UNL1        0.0477
      3 N          24.4331   41.6520   25.6548 N.2     1  UNL1       -0.2579
      4 C          24.9625   42.0492   26.8534 C.2     1  UNL1        0.0573
      5 C          25.1720   41.1526   27.8404 C.2     1  UNL1        0.0306
      6 C          24.8283   39.6973   27.6448 C.3     1  UNL1        0.0644
      7 C          25.7146   41.5472   29.0760 C.2     1  UNL1        0.1706
      8 O          25.9071   40.7119   29.9372 O.2     1  UNL1       -0.2916
      9 C          26.0617   42.9850   29.3506 C.3     1  UNL1        0.0692
     10 C          25.1486   43.8869   28.5134 C.3     1  UNL1        0.0128
     11 C          25.3044   43.5065   27.0418 C.3     1  UNL1        0.0460
     12 C          25.5488   45.3502   28.7122 C.3     1  UNL1        0.0008
     13 C          23.6936   43.6849   28.9413 C.3     1  UNL1        0.0008
     14 C          24.3076   39.9738   23.8236 C.3     1  UNL1        0.0478
     15 C          23.5377   39.3931   28.3608 C.ar    1  UNL1       -0.0174
     16 C          22.4526   40.2391   28.2140 C.ar    1  UNL1       -0.0037
     17 C          21.2665   39.9637   28.8620 C.ar    1  UNL1        0.0061
     18 C          21.1657   38.8340   29.6765 C.ar    1  UNL1        0.0756
     19 C          22.2664   37.9876   29.8247 C.ar    1  UNL1        0.0061
     20 C          23.4446   38.2719   29.1665 C.ar    1  UNL1       -0.0037
     21 C          19.9008   38.5361   30.3788 C.2     1  UNL1        0.3413
     22 O          18.9438   38.1206   29.7565 O.2     1  UNL1       -0.2449
     23 O          19.8084   38.7250   31.7093 O.3     1  UNL1       -0.4413
     24 C          18.4998   39.0674   32.2373 C.3     1  UNL1        0.2560
     25 C          24.7102   38.0219   25.7724 C.2     1  UNL1        0.3225
     26 O          23.6841   37.3720   25.6983 O.2     1  UNL1       -0.2497
     27 O          25.8928   37.4543   25.4557 O.3     1  UNL1       -0.4482
     28 C          26.1186   36.1224   25.9216 C.3     1  UNL1        0.2084
     29 C          27.2154   36.1345   26.9883 C.3     1  UNL1        0.0474
     30 C          26.5757   36.1003   28.3778 C.3     1  UNL1        0.0038
     31 C          28.0835   38.0925   28.3864 C.3     1  UNL1        0.0000
     32 C          27.0073   37.3368   29.1686 C.3     1  UNL1        0.0001
@<TRIPOS>BOND
     1    31    32    1
     2    32    30    1
     3    30    29    1
     4    29    28    1
     5    28    27    1
     6    27    25    1
     7    25    26    2
     8    25     1    1
     9     1     6    1
    10     1     2    1
    11     2    14    1
    12     2     3    2
    13     3     4    1
    14     4    11    1
    15     4     5    2
    16     5     6    1
    17     5     7    1
    18     6    15    1
    19    15    20   ar
    20    15    16   ar
    21    16    17   ar
    22    17    18   ar
    23    18    19   ar
    24    18    21    1
    25    19    20   ar
    26    21    22    2
    27    21    23    1
    28    23    24    1
    29     7     8    2
    30     7     9    1
    31     9    10    1
    32    10    11    1
    33    10    12    1
    34    10    13    1
@<TRIPOS>MOLECULE
ZINC09640782
 30 33 0 0 0
SMALL
GASTEIGER

@<TRIPOS>ATOM
      1 C          23.1629   39.6558   28.4365 C.ar    1  UNL1        0.1601
      2 N          23.4283   40.9385   28.2455 N.ar    1  UNL1       -0.2046
      3 C          24.6430   41.4312   28.5008 C.ar    1  UNL1        0.1666
      4 N          25.6179   40.6529   28.9527 N.ar    1  UNL1       -0.2104
      5 C          25.3950   39.3517   29.1602 C.ar    1  UNL1        0.1345
      6 N          24.1434   38.8298   28.9052 N.ar    1  UNL1       -0.3777
      7 N          24.1806   37.4629   29.1973 N.ar    1  UNL1       -0.5547
      8 C          25.4187   37.1520   29.6286 C.ar    1  UNL1        0.1018
      9 O          25.7969   36.0441   29.9727 O.2     1  UNL1       -0.3111
     10 C          26.1955   38.3116   29.6150 C.ar    1  UNL1        0.0545
     11 C          24.9062   42.8706   28.2763 C.ar    1  UNL1        0.0465
     12 C          26.1518   43.2905   27.8083 C.ar    1  UNL1        0.0039
     13 C          26.3898   44.6326   27.5973 C.ar    1  UNL1        0.0002
     14 C          25.3994   45.5639   27.8573 C.ar    1  UNL1        0.0009
     15 C          24.1640   45.1560   28.3258 C.ar    1  UNL1        0.0115
     16 C          23.9111   43.8144   28.5373 C.ar    1  UNL1        0.0606
     17 CL         22.3602   43.3035   29.1265 Cl      1  UNL1       -0.0821
     18 S          21.5549   39.0212   28.0954 S.3     1  UNL1       -0.0744
     19 C          20.7330   39.3871   29.6659 C.3     1  UNL1        0.1123
     20 C          19.3544   38.7238   29.6867 C.3     1  UNL1        0.2174
     21 O          19.1200   38.1524   30.9754 O.3     1  UNL1       -0.4748
     22 C          18.4322   39.1775   33.0089 C.ar    1  UNL1        0.0162
     23 C          17.4361   39.7467   33.7788 C.ar    1  UNL1       -0.0009
     24 C          16.1548   39.8677   33.2742 C.ar    1  UNL1       -0.0001
     25 C          15.8641   39.4100   32.0019 C.ar    1  UNL1        0.0031
     26 C          16.8552   38.8355   31.2302 C.ar    1  UNL1        0.0366
     27 C          18.1433   38.7177   31.7325 C.ar    1  UNL1        0.1349
     28 C          19.8299   39.0507   33.5577 C.3     1  UNL1        0.0554
     29 C          20.4501   40.6675   35.2790 C.2     1  UNL1       -0.0046
     30 C          19.8558   39.5380   34.9836 C.2     1  UNL1       -0.0213
@<TRIPOS>UNITY_ATOM_ATTR
7 1
charge -1
@<TRIPOS>BOND
     1    29    30    2
     2    30    28    1
     3    28    22    1
     4    22    27   ar
     5    22    23   ar
     6    23    24   ar
     7    24    25   ar
     8    25    26   ar
     9    26    27   ar
    10    27    21    1
    11    21    20    1
    12    20    19    1
    13    19    18    1
    14    18     1    1
    15     1     6   ar
    16     1     2   ar
    17     2     3   ar
    18     3     4   ar
    19     3    11    1
    20     4     5   ar
    21     5    10   ar
    22     5     6   ar
    23     6     7   ar
    24     7     8   ar
    25     8     9    2
    26     8    10   ar
    27    11    16   ar
    28    11    12   ar
    29    12    13   ar
    30    13    14   ar
    31    14    15   ar
    32    15    16   ar
    33    16    17    1
@<TRIPOS>MOLECULE
ZINC18961756
 33 36 0 0 0
SMALL
GASTEIGER

@<TRIPOS>ATOM
      1 N          24.3085   37.4672   29.8200 N.ar    1  UNL1       -0.2285
      2 C          23.1422   38.1296   30.0368 C.ar    1  UNL1        0.0982
      3 C          22.9260   38.9438   28.9809 C.ar    1  UNL1        0.0275
      4 C          23.9964   38.7784   28.0800 C.ar    1  UNL1        0.0993
      5 N          24.8221   37.8866   28.5862 N.ar    1  UNL1       -0.1654
      6 C          26.0462   34.6671   32.3718 C.ar    1  UNL1        0.0001
      7 C          25.1556   35.5985   32.8734 C.ar    1  UNL1        0.0015
      8 C          24.5781   36.5276   32.0304 C.ar    1  UNL1        0.0191
      9 C          24.8926   36.5259   30.6779 C.ar    1  UNL1        0.0828
     10 C          25.7829   35.5857   30.1763 C.ar    1  UNL1        0.0191
     11 C          26.3619   34.6631   31.0255 C.ar    1  UNL1        0.0015
     12 C          24.1612   39.4819   26.7839 C.ar    1  UNL1        0.0192
     13 C          24.7586   40.7400   26.7422 C.ar    1  UNL1        0.0032
     14 C          24.9133   41.3879   25.5334 C.ar    1  UNL1        0.0241
     15 C          24.4680   40.7946   24.3659 C.ar    1  UNL1        0.1429
     16 C          23.8695   39.5480   24.4022 C.ar    1  UNL1        0.0241
     17 C          23.7140   38.8891   25.6048 C.ar    1  UNL1        0.0032
     18 N          24.6319   41.4964   23.0730 N.pl3   1  UNL1        0.0577
     19 O          24.8503   40.8599   22.0578 O.2     1  UNL1       -0.1261
     20 O          24.5484   42.7106   23.0244 O.2     1  UNL1       -0.1261
     21 C          21.7483   39.8664   28.7991 C.3     1  UNL1        0.1390
     22 C          20.5158   39.0540   28.4960 C.2     1  UNL1        0.3219
     23 O          20.4784   38.3584   27.5089 O.2     1  UNL1       -0.2497
     24 O          19.4595   39.1033   29.3228 O.3     1  UNL1       -0.4433
     25 C          19.5185   38.2799   30.5174 C.3     1  UNL1        0.2351
     26 C          18.7102   38.9258   31.6131 C.ar    1  UNL1        0.0219
     27 C          17.3278   38.9017   31.5570 C.ar    1  UNL1       -0.0006
     28 C          16.5780   39.4880   32.5609 C.ar    1  UNL1        0.0005
     29 C          17.2051   40.1106   33.6206 C.ar    1  UNL1        0.0103
     30 C          18.5995   40.1433   33.6808 C.ar    1  UNL1        0.0682
     31 C          19.3501   39.5447   32.6666 C.ar    1  UNL1        0.0096
     32 C          19.2572   40.7881   34.7774 C.1     1  UNL1        0.1004
     33 N          19.7789   41.2995   35.6473 N.1     1  UNL1       -0.1908
@<TRIPOS>BOND
     1     6    11   ar
     2     6     7   ar
     3     7     8   ar
     4     8     9   ar
     5     9    10   ar
     6     9     1    1
     7    10    11   ar
     8     1     5   ar
     9     1     2   ar
    10     2     3   ar
    11     3     4   ar
    12     3    21    1
    13     4     5   ar
    14     4    12    1
    15    12    17   ar
    16    12    13   ar
    17    13    14   ar
    18    14    15   ar
    19    15    16   ar
    20    15    18    1
    21    16    17   ar
    22    18    19    2
    23    18    20    2
    24    21    22    1
    25    22    23    2
    26    22    24    1
    27    24    25    1
    28    25    26    1
    29    26    31   ar
    30    26    27   ar
    31    27    28   ar
    32    28    29   ar
    33    29    30   ar
    34    30    31   ar
    35    30    32    1
    36    32    33    3
@<TRIPOS>MOLECULE
ZINC12655718
 31 33 0 0 0
SMALL
GASTEIGER

@<TRIPOS>ATOM
      1 C          14.4296   37.5373   29.5034 C.3     1  UNL1        0.2775
      2 C          15.5974   38.3808   29.9458 C.2     1  UNL1        0.2283
      3 O          16.6267   38.3814   29.2988 O.2     1  UNL1       -0.2866
      4 C          15.4968   39.1662   31.1059 C.2     1  UNL1        0.1265
      5 C          16.6426   39.4276   31.8803 C.2     1  UNL1        0.0947
      6 N          16.7617   40.2445   32.9593 N.pl3   1  UNL1       -0.2792
      7 C          17.9796   40.3770   33.5980 C.ar    1  UNL1        0.0581
      8 C          18.2971   41.1690   34.7131 C.ar    1  UNL1        0.0153
      9 C          19.5715   41.1789   35.2280 C.ar    1  UNL1        0.0013
     10 C          20.5816   40.4203   34.6599 C.ar    1  UNL1        0.0006
     11 C          20.2981   39.6347   33.5569 C.ar    1  UNL1        0.0078
     12 C          19.0224   39.6197   33.0442 C.ar    1  UNL1        0.0443
     13 S          18.2414   38.7847   31.6863 S.3     1  UNL1       -0.0700
     14 C          15.5963   40.9862   33.4468 C.3     1  UNL1        0.1178
     15 C          14.2285   39.7012   31.5006 C.1     1  UNL1        0.1052
     16 N          13.2222   40.1255   31.8137 N.1     1  UNL1       -0.1907
     17 O          13.9614   37.9997   28.2091 O.3     1  UNL1       -0.4373
     18 C          13.0986   37.2070   27.5543 C.2     1  UNL1        0.3624
     19 O          13.4835   36.1742   27.0593 O.2     1  UNL1       -0.2459
     20 C          11.6500   37.6051   27.4363 C.3     1  UNL1        0.3141
     21 O          11.5137   38.6155   26.4349 O.3     1  UNL1       -0.4641
     22 C          10.9648   39.1381   24.1800 C.ar    1  UNL1        0.0115
     23 C          10.5484   38.7256   22.9288 C.ar    1  UNL1       -0.0013
     24 C          10.2551   37.3940   22.7009 C.ar    1  UNL1       -0.0001
     25 C          10.3822   36.4708   23.7227 C.ar    1  UNL1        0.0031
     26 C          10.8035   36.8772   24.9737 C.ar    1  UNL1        0.0366
     27 C          11.0989   38.2131   25.2049 C.ar    1  UNL1        0.1353
     28 C          11.2789   40.5908   24.4293 C.3     1  UNL1        0.0253
     29 C          12.1663   41.1215   23.3017 C.3     1  UNL1        0.0048
     30 C           9.8942   42.3005   23.2452 C.3     1  UNL1        0.0003
     31 C           9.9771   41.3935   24.4746 C.3     1  UNL1        0.0045
@<TRIPOS>BOND
     1    30    31    1
     2    31    28    1
     3    28    29    1
     4    28    22    1
     5    22    27   ar
     6    22    23   ar
     7    23    24   ar
     8    24    25   ar
     9    25    26   ar
    10    26    27   ar
    11    27    21    1
    12    21    20    1
    13    20    18    1
    14    18    19    2
    15    18    17    1
    16    17     1    1
    17     1     2    1
    18     2     3    2
    19     2     4    1
    20     4     5    2
    21     4    15    1
    22     5    13    1
    23     5     6    1
    24     6     7    1
    25     6    14    1
    26     7    12   ar
    27     7     8   ar
    28     8     9   ar
    29     9    10   ar
    30    10    11   ar
    31    11    12   ar
    32    12    13    1
    33    15    16    3
@<TRIPOS>MOLECULE
ZINC09119092
 31 33 0 0 0
SMALL
GASTEIGER

@<TRIPOS>ATOM
      1 N          25.8793   36.7168   28.4367 N.ar    1  UNL1       -0.3248
      2 C          24.9839   37.4910   27.7761 C.ar    1  UNL1        0.0981
      3 C          23.8755   37.9818   28.3666 C.ar    1  UNL1        0.1661
      4 C          23.6089   37.6954   29.7267 C.ar    1  UNL1        0.2159
      5 O          22.6111   38.1306   30.2784 O.2     1  UNL1       -0.2851
      6 C          24.5739   36.8560   30.4538 C.ar    1  UNL1        0.0584
      7 C          25.7059   36.3839   29.7630 C.ar    1  UNL1        0.0644
      8 C          26.6304   35.5903   30.4296 C.ar    1  UNL1        0.0341
      9 C          26.4278   35.2735   31.7630 C.ar    1  UNL1        0.0771
     10 C          25.2983   35.7417   32.4400 C.ar    1  UNL1        0.1535
     11 C          24.3842   36.5283   31.7984 C.ar    1  UNL1        0.0356
     12 F          25.1125   35.4194   33.7388 F       1  UNL1       -0.2029
     13 S          22.7570   38.9823   27.4432 S.O2    1  UNL1        0.0319
     14 O          23.1081   38.8273   26.0750 O.2     1  UNL1       -0.1641
     15 O          21.4547   38.6936   27.9329 O.2     1  UNL1       -0.1641
     16 C          23.0919   40.6607   27.8620 C.ar    1  UNL1        0.1104
     17 C          24.3513   41.1886   27.6475 C.ar    1  UNL1        0.0184
     18 C          24.6128   42.5067   27.9719 C.ar    1  UNL1       -0.0029
     19 C          23.6175   43.2941   28.5198 C.ar    1  UNL1       -0.0218
     20 C          22.3593   42.7648   28.7389 C.ar    1  UNL1       -0.0029
     21 C          22.0966   41.4481   28.4103 C.ar    1  UNL1        0.0184
     22 C          23.9038   44.7296   28.8780 C.3     1  UNL1        0.0310
     23 C          27.0600   36.2223   27.7241 C.3     1  UNL1        0.1061
     24 C          26.6267   35.5739   26.4078 C.3     1  UNL1        0.0245
     25 C          26.9844   33.3840   27.5560 C.3     1  UNL1        0.0001
     26 C          27.2667   34.1896   26.2863 C.3     1  UNL1        0.0020
     27 N          27.3546   34.4774   32.4329 N.pl3   1  UNL1       -0.3057
     28 C          28.3894   35.2999   33.0734 C.3     1  UNL1        0.0909
     29 C          28.3325   35.1019   34.5894 C.3     1  UNL1        0.0232
     30 C          27.9536   33.4900   31.5252 C.3     1  UNL1        0.0909
     31 C          27.2090   32.1597   31.6553 C.3     1  UNL1        0.0232
@<TRIPOS>BOND
     1    25    26    1
     2    26    24    1
     3    24    23    1
     4    23     1    1
     5     1     7   ar
     6     1     2   ar
     7     2     3   ar
     8     3     4   ar
     9     3    13    1
    10     4     5    2
    11     4     6   ar
    12     6    11   ar
    13     6     7   ar
    14     7     8   ar
    15     8     9   ar
    16     9    10   ar
    17     9    27    1
    18    10    11   ar
    19    10    12    1
    20    27    28    1
    21    27    30    1
    22    28    29    1
    23    30    31    1
    24    13    14    2
    25    13    15    2
    26    13    16    1
    27    16    21   ar
    28    16    17   ar
    29    17    18   ar
    30    18    19   ar
    31    19    20   ar
    32    19    22    1
    33    20    21   ar
@<TRIPOS>MOLECULE
ZINC25553537
 32 34 0 0 0
SMALL
GASTEIGER

@<TRIPOS>ATOM
      1 C          27.4160   35.9018   27.4939 C.3     1  UNL1        0.0003
      2 C          26.7514   35.5167   26.1593 C.3     1  UNL1        0.0003
      3 C          25.6135   36.5376   25.9236 C.3     1  UNL1        0.0040
      4 C          26.0426   37.7575   26.7623 C.3     1  UNL1        0.0180
      5 C          26.6296   37.1228   28.0385 C.3     1  UNL1        0.0034
      6 C          25.5202   36.5733   28.9355 C.3     1  UNL1        0.0006
      7 C          24.5131   37.6611   29.3031 C.3     1  UNL1        0.0040
      8 C          23.8150   38.1219   28.0194 C.3     1  UNL1        0.0183
      9 C          24.8637   38.6402   27.0795 C.2     1  UNL1       -0.0491
     10 C          24.8192   39.8273   26.5387 C.2     1  UNL1       -0.0346
     11 C          23.7179   40.8068   26.8314 C.3     1  UNL1        0.0258
     12 C          23.2072   40.5495   28.2545 C.3     1  UNL1        0.0105
     13 C          22.7209   39.1212   28.3242 C.3     1  UNL1        0.0093
     14 C          22.1855   38.8619   29.7338 C.3     1  UNL1        0.0007
     15 C          27.5409   38.0866   28.8012 C.3     1  UNL1        0.0003
     16 C          27.3260   34.7363   28.4810 C.3     1  UNL1        0.0000
     17 C          28.6546   34.5959   29.2267 C.3     1  UNL1        0.0000
     18 C          27.0302   33.4435   27.7181 C.3     1  UNL1        0.0000
     19 C          27.8263   32.2927   28.3367 C.3     1  UNL1        0.0000
     20 C          26.8713   31.3476   29.0688 C.3     1  UNL1        0.0000
     21 C          27.1821   31.3683   30.5668 C.3     1  UNL1        0.0000
     22 C          26.1074   28.9779   29.2764 C.3     1  UNL1        0.0000
     23 C          27.0484   29.9263   28.5308 C.3     1  UNL1        0.0000
     24 C          26.7190   29.9017   27.0370 C.3     1  UNL1        0.0000
     25 C          21.5832   38.9394   27.3176 C.3     1  UNL1        0.0420
     26 C          21.3854   37.4710   27.0429 C.2     1  UNL1        0.0503
     27 O          21.8818   36.9674   26.0632 O.co2   1  UNL1       -0.5492
     28 O          20.6578   36.7223   27.8867 O.co2   1  UNL1       -0.5492
     29 C          22.0593   41.5095   28.5732 C.3     1  UNL1        0.0421
     30 C          22.6063   42.9007   28.7641 C.2     1  UNL1        0.0503
     31 O          21.8739   43.8566   28.6658 O.co2   1  UNL1       -0.5492
     32 O          23.9073   43.0779   29.0432 O.co2   1  UNL1       -0.5492
@<TRIPOS>UNITY_ATOM_ATTR
28 1
charge -1
32 1
charge -1
@<TRIPOS>BOND
     1    22    23    1
     2    23    24    1
     3    23    20    1
     4    20    21    1
     5    20    19    1
     6    19    18    1
     7    18    16    1
     8    16    17    1
     9    16     1    1
    10     1     5    1
    11     1     2    1
    12     2     3    1
    13     3     4    1
    14     4     9    1
    15     4     5    1
    16     5     6    1
    17     5    15    1
    18     6     7    1
    19     7     8    1
    20     8    13    1
    21     8     9    1
    22     9    10    2
    23    10    11    1
    24    11    12    1
    25    12    13    1
    26    12    29    1
    27    13    14    1
    28    13    25    1
    29    25    26    1
    30    26    27   ar
    31    26    28   ar
    32    29    30    1
    33    30    31   ar
    34    30    32   ar
@<TRIPOS>MOLECULE
ZINC09458186
 33 36 0 0 0
SMALL
GASTEIGER

@<TRIPOS>ATOM
      1 N          16.6348   38.9718   31.1822 N.ar    1  UNL1       -0.2165
      2 C          16.7318   39.3686   32.4678 C.ar    1  UNL1        0.2763
      3 O          15.7342   39.6154   33.1204 O.2     1  UNL1       -0.2655
      4 C          18.0696   39.4955   33.0624 C.ar    1  UNL1        0.0593
      5 C          18.2768   39.8973   34.3782 C.ar    1  UNL1        0.0048
      6 C          19.5647   39.9919   34.8608 C.ar    1  UNL1        0.0002
      7 C          20.6507   39.6911   34.0493 C.ar    1  UNL1        0.0001
      8 C          20.4663   39.2912   32.7426 C.ar    1  UNL1        0.0019
      9 C          19.1753   39.1892   32.2359 C.ar    1  UNL1        0.0304
     10 C          18.8922   38.7704   30.8534 C.ar    1  UNL1        0.1764
     11 N          17.6468   38.6987   30.4488 N.ar    1  UNL1       -0.1602
     12 C          19.9960   38.4347   29.9343 C.2     1  UNL1        0.3612
     13 O          19.9978   37.3689   29.3507 O.2     1  UNL1       -0.2431
     14 O          21.0025   39.3099   29.7419 O.3     1  UNL1       -0.4393
     15 C          21.0098   40.0407   28.4872 C.3     1  UNL1        0.2357
     16 C          22.4331   40.2979   28.0640 C.ar    1  UNL1        0.0307
     17 C          23.1980   39.3024   27.5488 C.ar    1  UNL1        0.0817
     18 C          24.5284   39.5698   27.1595 C.ar    1  UNL1        0.3457
     19 O          25.2045   38.6677   26.6988 O.2     1  UNL1       -0.2445
     20 O          25.0673   40.7923   27.2845 O.2     1  UNL1       -0.4211
     21 C          24.3606   41.8262   27.7894 C.ar    1  UNL1        0.1482
     22 C          23.0276   41.6321   28.1920 C.ar    1  UNL1        0.0344
     23 C          22.2957   42.6992   28.7215 C.ar    1  UNL1        0.0025
     24 C          22.8849   43.9384   28.8344 C.ar    1  UNL1       -0.0041
     25 C          24.1986   44.1294   28.4316 C.ar    1  UNL1       -0.0188
     26 C          24.9345   43.0846   27.9127 C.ar    1  UNL1        0.0333
     27 C          24.8280   45.4926   28.5618 C.3     1  UNL1        0.0311
     28 C          15.2988   38.8470   30.5942 C.3     1  UNL1        0.1307
     29 C          15.4095   38.2119   29.2067 C.3     1  UNL1        0.0265
     30 C          14.2733   37.2055   29.0142 C.3     1  UNL1        0.0021
     31 C          13.5299   37.5181   27.7141 C.3     1  UNL1        0.0001
     32 C          11.4989   36.2648   26.9746 C.3     1  UNL1        0.0000
     33 C          12.0261   37.3370   27.9302 C.3     1  UNL1        0.0000
@<TRIPOS>BOND
     1    32    33    1
     2    33    31    1
     3    31    30    1
     4    30    29    1
     5    29    28    1
     6    28     1    1
     7     1    11   ar
     8     1     2   ar
     9     2     3    2
    10     2     4   ar
    11     4     9   ar
    12     4     5   ar
    13     5     6   ar
    14     6     7   ar
    15     7     8   ar
    16     8     9   ar
    17     9    10   ar
    18    10    11   ar
    19    10    12    1
    20    12    13    2
    21    12    14    1
    22    14    15    1
    23    15    16    1
    24    16    22   ar
    25    16    17   ar
    26    17    18   ar
    27    18    19    2
    28    18    20   ar
    29    20    21   ar
    30    21    26   ar
    31    21    22   ar
    32    22    23   ar
    33    23    24   ar
    34    24    25   ar
    35    25    26   ar
    36    25    27    1
@<TRIPOS>MOLECULE
ZINC09185200
 31 34 0 0 0
SMALL
GASTEIGER

@<TRIPOS>ATOM
      1 N          14.8596   38.3167   29.5259 N.ar    1  UNL1       -0.1760
      2 C          14.5685   38.8913   30.7180 C.ar    1  UNL1        0.2891
      3 O          13.4159   39.1303   31.0362 O.2     1  UNL1       -0.2645
      4 C          15.6357   39.2022   31.5758 C.ar    1  UNL1        0.1082
      5 C          16.9555   38.9324   31.2211 C.ar    1  UNL1        0.1168
      6 C          17.9795   39.3084   32.2122 C.ar    1  UNL1        0.0423
      7 C          19.3815   39.1479   32.1082 C.ar    1  UNL1        0.0119
      8 C          20.1787   39.5660   33.1490 C.ar    1  UNL1        0.0130
      9 C          19.6125   40.1341   34.2797 C.ar    1  UNL1        0.0597
     10 N          18.3050   40.2804   34.3701 N.ar    1  UNL1       -0.2431
     11 C          17.5035   39.8954   33.3992 C.ar    1  UNL1        0.1117
     12 S          15.7410   39.9379   33.1852 S.2     1  UNL1       -0.0616
     13 C          20.4969   40.5879   35.4124 C.3     1  UNL1        0.0521
     14 N          17.1599   38.3540   30.0044 N.ar    1  UNL1       -0.1292
     15 N          16.1991   38.0588   29.2133 N.ar    1  UNL1       -0.0570
     16 C          11.8237   37.3218   26.8495 C.ar    1  UNL1        0.0757
     17 C          13.0903   37.6719   26.3734 C.ar    1  UNL1        0.0080
     18 C          14.0894   38.0053   27.2603 C.ar    1  UNL1        0.0195
     19 C          13.8425   37.9832   28.6292 C.ar    1  UNL1        0.0876
     20 C          12.5845   37.6301   29.1068 C.ar    1  UNL1        0.0195
     21 C          11.5792   37.3006   28.2254 C.ar    1  UNL1        0.0080
     22 C          10.7490   36.9693   25.9020 C.2     1  UNL1        0.3412
     23 O          10.8377   35.9605   25.2308 O.2     1  UNL1       -0.2449
     24 O           9.6666   37.7632   25.7852 O.3     1  UNL1       -0.4454
     25 C           9.3864   38.3063   24.4680 C.3     1  UNL1        0.2088
     26 C          10.4268   39.3742   24.1249 C.3     1  UNL1        0.0475
     27 C           9.8526   41.8049   24.1942 C.3     1  UNL1        0.0001
     28 C          10.2333   40.5866   25.0380 C.3     1  UNL1        0.0038
     29 C          19.9919   38.5292   30.8770 C.3     1  UNL1        0.1688
     30 O          20.7770   39.5070   30.1919 O.3     1  UNL1       -0.3463
     31 C          20.5076   39.5911   28.7909 C.3     1  UNL1        0.1746
@<TRIPOS>BOND
     1    27    28    1
     2    28    26    1
     3    26    25    1
     4    25    24    1
     5    24    22    1
     6    22    23    2
     7    22    16    1
     8    16    21   ar
     9    16    17   ar
    10    17    18   ar
    11    18    19   ar
    12    19    20   ar
    13    19     1    1
    14    20    21   ar
    15     1    15   ar
    16     1     2   ar
    17     2     3    2
    18     2     4   ar
    19     4    12   ar
    20     4     5   ar
    21     5     6   ar
    22     5    14   ar
    23     6    11   ar
    24     6     7   ar
    25     7     8   ar
    26     7    29    1
    27     8     9   ar
    28     9    10   ar
    29     9    13    1
    30    10    11   ar
    31    11    12   ar
    32    29    30    1
    33    30    31    1
    34    14    15   ar
@<TRIPOS>MOLECULE
ZINC08832411
 28 29 0 0 0
SMALL
GASTEIGER

@<TRIPOS>ATOM
      1 C          23.5143   39.2999   28.5504 C.ar    1  UNL1        0.0555
      2 C          24.7710   38.7512   28.7531 C.ar    1  UNL1       -0.0047
      3 C          24.8834   37.7417   29.6712 C.ar    1  UNL1        0.0996
      4 S          23.2105   37.5574   30.2590 S.2     1  UNL1       -0.1056
      5 C          22.4509   38.7871   29.3024 C.ar    1  UNL1       -0.0851
      6 C          25.9712   39.2480   27.9891 C.3     1  UNL1        0.0319
      7 C          23.3069   40.3855   27.5853 C.2     1  UNL1        0.3396
      8 O          23.4481   40.1765   26.3958 O.2     1  UNL1       -0.2450
      9 O          22.9600   41.6146   28.0174 O.3     1  UNL1       -0.4455
     10 C          23.5443   43.8941   28.6442 C.3     1  UNL1        0.0513
     11 C          24.0168   42.4406   28.5735 C.3     1  UNL1        0.2089
     12 C          26.0786   36.9998   30.0707 C.2     1  UNL1        0.3471
     13 O          26.4134   36.0071   29.4523 O.2     1  UNL1       -0.2443
     14 O          26.8100   37.4162   31.1254 O.3     1  UNL1       -0.4410
     15 C          26.8566   36.5537   32.2637 C.3     1  UNL1        0.2560
     16 N          21.1244   39.1663   29.2854 N.am    1  UNL1       -0.6054
     17 C          20.1973   38.4024   29.8966 C.2     1  UNL1        0.0846
     18 O          19.8820   37.3299   29.4185 O.2     1  UNL1       -0.3128
     19 C          19.5656   38.8673   31.1454 C.ar    1  UNL1        0.0512
     20 C          20.3481   39.4070   32.1700 C.ar    1  UNL1        0.0157
     21 C          19.7518   39.8400   33.3353 C.ar    1  UNL1        0.0588
     22 C          18.3780   39.7425   33.4957 C.ar    1  UNL1        0.0258
     23 C          17.5933   39.2110   32.4908 C.ar    1  UNL1        0.0924
     24 C          18.1770   38.7757   31.3091 C.ar    1  UNL1        0.1503
     25 CL         15.8743   39.0944   32.7029 Cl      1  UNL1       -0.0791
     26 CL         20.7251   40.5096   34.6073 Cl      1  UNL1       -0.0822
     27 O          17.4069   38.2586   30.3187 O.3     1  UNL1       -0.4705
     28 C          16.2701   39.0241   29.9140 C.3     1  UNL1        0.2525
@<TRIPOS>UNITY_ATOM_ATTR
16 1
charge -1
@<TRIPOS>BOND
     1    10    11    1
     2    11     9    1
     3     9     7    1
     4     7     8    2
     5     7     1    1
     6     1     5   ar
     7     1     2   ar
     8     2     3   ar
     9     2     6    1
    10     3     4   ar
    11     3    12    1
    12     4     5   ar
    13     5    16    1
    14    16    17    1
    15    17    18    2
    16    17    19    1
    17    19    24   ar
    18    19    20   ar
    19    20    21   ar
    20    21    22   ar
    21    21    26    1
    22    22    23   ar
    23    23    24   ar
    24    23    25    1
    25    24    27    1
    26    27    28    1
    27    12    13    2
    28    12    14    1
    29    14    15    1
@<TRIPOS>MOLECULE
ZINC21738638
 31 34 0 0 0
SMALL
GASTEIGER

@<TRIPOS>ATOM
      1 O          13.0152   36.8662   28.1416 O.3     1  UNL1       -0.4381
      2 C          12.0759   36.9433   27.1859 C.2     1  UNL1        0.3195
      3 O          11.6813   35.9379   26.6441 O.2     1  UNL1       -0.2500
      4 C          11.5133   38.2837   26.7887 C.3     1  UNL1        0.1360
      5 C          10.2690   38.0782   25.9224 C.3     1  UNL1        0.1456
      6 N          10.5144   38.6126   24.5807 N.ar    1  UNL1       -0.1822
      7 C          10.8785   37.9078   23.4886 C.ar    1  UNL1        0.4391
      8 O          11.0645   36.7062   23.4369 O.2     1  UNL1       -0.2210
      9 O          10.9959   38.7742   22.4686 O.2     1  UNL1       -0.3872
     10 C          10.7160   40.0178   22.9172 C.ar    1  UNL1        0.2570
     11 N          10.4219   39.9557   24.1865 N.ar    1  UNL1       -0.1256
     12 C          10.7395   41.2448   22.1046 C.ar    1  UNL1        0.0846
     13 C          10.1840   42.4702   22.3728 C.ar    1  UNL1        0.0117
     14 C          10.3413   43.4824   21.4537 C.ar    1  UNL1        0.0076
     15 C          11.0297   43.2363   20.3085 C.ar    1  UNL1        0.0356
     16 S          11.4918   41.5237   20.5096 S.2     1  UNL1       -0.0817
     17 C          13.0368   37.9279   29.1319 C.3     1  UNL1        0.2953
     18 C          16.1793   38.7505   30.6704 C.ar    1  UNL1        0.2034
     19 N          14.8276   38.7853   30.6776 N.ar    1  UNL1       -0.1876
     20 C          14.4538   38.1593   29.5895 C.ar    1  UNL1        0.2812
     21 O          15.5654   37.7588   28.9644 O.2     1  UNL1       -0.3331
     22 N          16.5431   38.1039   29.5937 N.ar    1  UNL1       -0.0559
     23 C          18.7630   40.4157   33.6093 C.ar    1  UNL1       -0.0225
     24 C          19.2753   39.5733   32.6390 C.ar    1  UNL1       -0.0042
     25 C          18.4404   39.0261   31.6859 C.ar    1  UNL1        0.0028
     26 C          17.0811   39.3319   31.6960 C.ar    1  UNL1        0.0391
     27 C          16.5714   40.1852   32.6724 C.ar    1  UNL1        0.0028
     28 C          17.4144   40.7227   33.6238 C.ar    1  UNL1       -0.0042
     29 C          20.5630   39.9033   35.2361 C.3     1  UNL1        0.0047
     30 C          19.6787   41.0060   34.6505 C.3     1  UNL1        0.0224
     31 C          18.8428   41.6360   35.7665 C.3     1  UNL1        0.0047
@<TRIPOS>BOND
     1    29    30    1
     2    30    31    1
     3    30    23    1
     4    23    28   ar
     5    23    24   ar
     6    24    25   ar
     7    25    26   ar
     8    26    27   ar
     9    26    18    1
    10    27    28   ar
    11    18    22   ar
    12    18    19   ar
    13    19    20   ar
    14    20    21   ar
    15    20    17    1
    16    21    22   ar
    17    17     1    1
    18     1     2    1
    19     2     3    2
    20     2     4    1
    21     4     5    1
    22     5     6    1
    23     6    11   ar
    24     6     7   ar
    25     7     8    2
    26     7     9   ar
    27     9    10   ar
    28    10    11   ar
    29    10    12    1
    30    12    16   ar
    31    12    13   ar
    32    13    14   ar
    33    14    15   ar
    34    15    16   ar
@<TRIPOS>MOLECULE
ZINC15532907
 32 34 0 0 0
SMALL
GASTEIGER

@<TRIPOS>ATOM
      1 C          20.4514   38.0824   29.3461 C.2     1  UNL1        0.3459
      2 O          20.1101   37.1284   28.6720 O.2     1  UNL1       -0.2445
      3 C          22.4211   39.3854   28.9359 C.2     1  UNL1        0.0078
      4 C          21.0979   39.1834   28.7373 C.2     1  UNL1        0.0823
      5 C          23.8078   44.1386   27.7214 C.3     1  UNL1        0.0504
      6 C          23.6929   42.6373   27.7803 C.ar    1  UNL1        0.0429
      7 C          22.8616   41.9509   28.5820 C.ar    1  UNL1        0.0142
      8 C          23.0917   40.5273   28.3045 C.ar    1  UNL1        0.0134
      9 C          24.0630   40.4820   27.3245 C.ar    1  UNL1        0.0428
     10 N          24.4130   41.7570   27.0211 N.ar    1  UNL1       -0.2965
     11 C          24.6347   39.2347   26.7014 C.3     1  UNL1        0.0504
     12 C          25.3717   42.1187   26.0695 C.ar    1  UNL1        0.1888
     13 C          25.2105   42.1297   24.6590 C.ar    1  UNL1        0.0763
     14 C          26.4105   42.5496   24.1967 C.ar    1  UNL1        0.1564
     15 O          27.1838   42.7575   25.2721 O.2     1  UNL1       -0.3563
     16 N          26.5938   42.5198   26.3004 N.ar    1  UNL1       -0.0592
     17 C          26.8019   42.7450   22.7546 C.3     1  UNL1        0.0754
     18 O          20.2129   38.0899   30.6746 O.3     1  UNL1       -0.4210
     19 C          19.0091   38.5524   31.1044 C.ar    1  UNL1        0.1492
     20 C          18.9274   39.2729   32.2852 C.ar    1  UNL1        0.0440
     21 C          17.6926   39.7500   32.7305 C.ar    1  UNL1        0.0789
     22 C          16.5416   39.5006   31.9852 C.ar    1  UNL1        0.0131
     23 C          16.6284   38.7757   30.7981 C.ar    1  UNL1        0.0789
     24 C          17.8665   38.2977   30.3629 C.ar    1  UNL1        0.0440
     25 C          15.4114   38.5079   30.0042 C.2     1  UNL1        0.3414
     26 O          15.5017   37.9831   28.9125 O.2     1  UNL1       -0.2449
     27 O          14.2017   38.8455   30.4912 O.3     1  UNL1       -0.4413
     28 C          13.1013   37.9413   30.2082 C.3     1  UNL1        0.2560
     29 C          17.6065   40.5176   33.9900 C.2     1  UNL1        0.3414
     30 O          16.5725   41.0806   34.2887 O.2     1  UNL1       -0.2449
     31 O          18.6748   40.5931   34.8071 O.3     1  UNL1       -0.4413
     32 C          19.4466   41.8225   34.7712 C.3     1  UNL1        0.2560
@<TRIPOS>BOND
     1     5     6    1
     2     6    10   ar
     3     6     7   ar
     4     7     8   ar
     5     8     9   ar
     6     8     3    1
     7     9    10   ar
     8     9    11    1
     9    10    12    1
    10    12    16   ar
    11    12    13   ar
    12    13    14   ar
    13    14    15   ar
    14    14    17    1
    15    15    16   ar
    16     3     4    2
    17     4     1    1
    18     1     2    2
    19     1    18    1
    20    18    19    1
    21    19    24   ar
    22    19    20   ar
    23    20    21   ar
    24    21    22   ar
    25    21    29    1
    26    22    23   ar
    27    23    24   ar
    28    23    25    1
    29    25    26    2
    30    25    27    1
    31    27    28    1
    32    29    30    2
    33    29    31    1
    34    31    32    1
@<TRIPOS>MOLECULE
ZINC09442093
 32 34 0 0 0
SMALL
GASTEIGER

@<TRIPOS>ATOM
      1 C          24.6634   41.4514   22.5416 C.2     1  UNL1        0.1073
      2 C          25.6454   40.9038   21.7409 C.2     1  UNL1        0.0136
      3 C          25.3361   40.5184   20.3647 C.ar    1  UNL1        0.0025
      4 C          25.2902   41.4919   19.3539 C.ar    1  UNL1        0.0006
      5 C          25.0016   41.1270   18.0715 C.ar    1  UNL1        0.0082
      6 C          24.7525   39.7898   17.7636 C.ar    1  UNL1        0.0547
      7 C          24.7912   38.8202   18.7646 C.ar    1  UNL1        0.1489
      8 C          25.0845   39.1739   20.0495 C.ar    1  UNL1        0.0246
      9 N          24.5192   37.4034   18.4319 N.pl3   1  UNL1        0.0582
     10 O          25.4171   36.6915   18.0188 O.2     1  UNL1       -0.1261
     11 O          23.3974   36.9498   18.5712 O.2     1  UNL1       -0.1261
     12 S          24.3804   39.3253   16.1052 S.3     1  UNL1       -0.0487
     13 C          26.0034   39.3123   15.4195 C.ar    1  UNL1        0.1756
     14 N          26.7851   38.2630   15.3166 N.ar    1  UNL1       -0.2192
     15 C          27.9423   38.6264   14.7405 C.ar    1  UNL1        0.1197
     16 C          27.8901   39.9447   14.4812 C.ar    1  UNL1        0.0984
     17 N          26.6595   40.3888   14.9063 N.ar    1  UNL1       -0.3030
     18 C          26.1519   41.7606   14.8234 C.3     1  UNL1        0.1325
     19 C          24.9270   41.6916   23.9680 C.2     1  UNL1        0.2062
     20 O          25.6023   42.6452   24.3100 O.2     1  UNL1       -0.2858
     21 C          22.9570   37.5768   26.2536 C.3     1  UNL1        0.0500
     22 C          23.5053   38.9526   25.9752 C.ar    1  UNL1        0.0376
     23 C          23.9276   39.3964   24.7783 C.ar    1  UNL1        0.0171
     24 C          24.3741   40.7786   24.9832 C.ar    1  UNL1        0.0524
     25 C          24.1651   41.0507   26.3184 C.ar    1  UNL1        0.0405
     26 N          23.6461   39.9498   26.8958 N.ar    1  UNL1       -0.3298
     27 C          24.4655   42.3543   27.0122 C.3     1  UNL1        0.0501
     28 C          23.2841   39.8390   28.3110 C.3     1  UNL1        0.1319
     29 C          21.8438   40.2427   28.4943 C.2     1  UNL1       -0.0018
     30 C          21.1457   39.7469   29.4857 C.2     1  UNL1       -0.0029
     31 C          23.3879   41.7856   21.9829 C.1     1  UNL1        0.1036
     32 N          22.3761   42.0509   21.5399 N.1     1  UNL1       -0.1907
@<TRIPOS>BOND
     1    21    22    1
     2    22    26   ar
     3    22    23   ar
     4    23    24   ar
     5    24    25   ar
     6    24    19    1
     7    25    26   ar
     8    25    27    1
     9    26    28    1
    10    28    29    1
    11    29    30    2
    12    19    20    2
    13    19     1    1
    14     1     2    2
    15     1    31    1
    16     2     3    1
    17     3     8   ar
    18     3     4   ar
    19     4     5   ar
    20     5     6   ar
    21     6     7   ar
    22     6    12    1
    23     7     8   ar
    24     7     9    1
    25     9    10    2
    26     9    11    2
    27    12    13    1
    28    13    17   ar
    29    13    14   ar
    30    14    15   ar
    31    15    16   ar
    32    16    17   ar
    33    17    18    1
    34    31    32    3
@<TRIPOS>MOLECULE
ZINC28847888
 31 32 0 0 0
SMALL
GASTEIGER

@<TRIPOS>ATOM
      1 C          11.4314   36.5344   26.5642 C.2     1  UNL1        0.3168
      2 O          11.7464   35.5438   25.9481 O.2     1  UNL1       -0.2501
      3 C          10.7949   37.6971   25.8470 C.3     1  UNL1        0.1025
      4 C          10.0872   37.1933   24.5871 C.3     1  UNL1        0.0326
      5 C           9.4123   38.3725   23.8793 C.3     1  UNL1        0.0914
      6 N          10.4188   39.4136   23.6307 N.pl3   1  UNL1       -0.3064
      7 C          11.2243   39.9012   24.7586 C.3     1  UNL1        0.0914
      8 C          11.8750   38.7089   25.4575 C.3     1  UNL1        0.0326
      9 C          10.6054   39.9134   22.3769 C.2     1  UNL1        0.0646
     10 C          10.7957   41.2435   22.1989 C.2     1  UNL1        0.0619
     11 C          11.0904   41.7449   20.9232 C.2     1  UNL1        0.2680
     12 O          11.0171   41.0174   19.9525 O.2     1  UNL1       -0.2824
     13 C          11.4918   43.1878   20.7550 C.3     1  UNL1        0.4555
     14 F          12.3615   43.5534   21.7880 F       1  UNL1       -0.1631
     15 F          12.1350   43.3523   19.5236 F       1  UNL1       -0.1631
     16 F          10.3513   43.9969   20.7971 F       1  UNL1       -0.1631
     17 O          11.6483   36.5992   27.8872 O.3     1  UNL1       -0.4443
     18 C          14.0200   36.5065   28.4317 C.3     1  UNL1        0.0560
     19 C          12.7784   37.3950   28.3317 C.3     1  UNL1        0.2296
     20 C          12.4747   37.9876   29.6837 C.2     1  UNL1        0.2128
     21 O          11.3281   38.0559   30.0720 O.2     1  UNL1       -0.2875
     22 C          13.5698   38.4833   30.5327 C.ar    1  UNL1        0.0383
     23 C          13.3360   38.7803   31.8792 C.ar    1  UNL1        0.0026
     24 C          14.3687   39.2389   32.6696 C.ar    1  UNL1       -0.0042
     25 C          15.6310   39.4168   32.1307 C.ar    1  UNL1       -0.0228
     26 C          15.8690   39.1307   30.7976 C.ar    1  UNL1       -0.0042
     27 C          14.8483   38.6654   29.9958 C.ar    1  UNL1        0.0026
     28 C          16.7524   39.9244   33.0000 C.3     1  UNL1        0.0189
     29 C          18.0947   39.5042   32.3980 C.3     1  UNL1        0.0044
     30 C          16.6848   41.4509   33.0800 C.3     1  UNL1        0.0044
     31 C          16.6162   39.3336   34.4047 C.3     1  UNL1        0.0044
@<TRIPOS>BOND
     1    18    19    1
     2    19    20    1
     3    19    17    1
     4    20    21    2
     5    20    22    1
     6    22    27   ar
     7    22    23   ar
     8    23    24   ar
     9    24    25   ar
    10    25    26   ar
    11    25    28    1
    12    26    27   ar
    13    28    29    1
    14    28    30    1
    15    28    31    1
    16    17     1    1
    17     1     2    2
    18     1     3    1
    19     3     8    1
    20     3     4    1
    21     4     5    1
    22     5     6    1
    23     6     7    1
    24     6     9    1
    25     7     8    1
    26     9    10    2
    27    10    11    1
    28    11    12    2
    29    11    13    1
    30    13    14    1
    31    13    15    1
    32    13    16    1
@<TRIPOS>MOLECULE
ZINC26373067
 32 34 0 0 0
SMALL
GASTEIGER

@<TRIPOS>ATOM
      1 N          24.9607   39.4279   27.9918 N.am    1  UNL1       -0.2759
      2 C          23.7234   39.1353   27.5443 C.2     1  UNL1        0.2668
      3 O          23.2938   39.6798   26.5495 O.2     1  UNL1       -0.2709
      4 H          25.3093   38.9859   28.7995 H       1  UNL1        0.1554
      5 C          26.2314   41.5677   27.7719 C.ar    1  UNL1        0.0915
      6 C          27.0391   42.3536   26.8540 C.ar    1  UNL1       -0.0122
      7 C          27.2175   41.8070   25.6320 C.ar    1  UNL1        0.0047
      8 S          26.3393   40.2709   25.6904 S.2     1  UNL1       -0.0767
      9 C          25.7421   40.3511   27.3149 C.ar    1  UNL1        0.0864
     10 C          27.9906   42.3862   24.4876 C.3     1  UNL1        0.0327
     11 C          28.2445   43.8725   24.7783 C.3     1  UNL1        0.0055
     12 C          28.7700   44.0124   26.2100 C.3     1  UNL1        0.0050
     13 C          27.6516   43.7035   27.2069 C.3     1  UNL1        0.0268
     14 C          25.9477   42.0392   29.1289 C.2     1  UNL1        0.3425
     15 O          26.4991   41.5202   30.0808 O.2     1  UNL1       -0.2448
     16 O          25.0748   43.0490   29.3233 O.3     1  UNL1       -0.4492
     17 C          22.7455   42.8254   28.6492 C.3     1  UNL1        0.0473
     18 C          24.1358   43.3243   28.2505 C.3     1  UNL1        0.1694
     19 C          24.0825   44.8317   27.9936 C.3     1  UNL1        0.0473
     20 C          22.8738   38.1316   28.2803 C.3     1  UNL1        0.2447
     21 C          23.5832   37.7101   29.5687 C.3     1  UNL1        0.0575
     22 O          21.6120   38.7203   28.6019 O.3     1  UNL1       -0.4397
     23 C          20.6642   37.9014   29.1039 C.2     1  UNL1        0.3418
     24 O          20.4215   36.8431   28.5550 O.2     1  UNL1       -0.2449
     25 C          19.9519   38.2739   30.2695 C.2     1  UNL1        0.0820
     26 C          20.4765   39.1840   31.1200 C.2     1  UNL1        0.0098
     27 C          19.7374   39.5707   32.3295 C.ar    1  UNL1        0.0398
     28 C          18.4101   39.2061   32.6558 C.ar    1  UNL1        0.1216
     29 N          18.1171   39.7390   33.8097 N.ar    1  UNL1       -0.1676
     30 N          19.2204   40.4677   34.2676 N.ar    1  UNL1       -0.2473
     31 C          20.2085   40.3597   33.3633 C.ar    1  UNL1        0.0967
     32 C          19.2888   41.2173   35.5244 C.3     1  UNL1        0.1538
@<TRIPOS>BOND
     1    17    18    1
     2    18    19    1
     3    18    16    1
     4    16    14    1
     5    14    15    2
     6    14     5    1
     7     5     9   ar
     8     5     6   ar
     9     6    13    1
    10     6     7   ar
    11     7     8   ar
    12     7    10    1
    13     8     9   ar
    14     9     1    1
    15     1     2   am
    16     2     3    2
    17     2    20    1
    18    20    21    1
    19    20    22    1
    20    22    23    1
    21    23    24    2
    22    23    25    1
    23    25    26    2
    24    26    27    1
    25    27    31   ar
    26    27    28   ar
    27    28    29   ar
    28    29    30   ar
    29    30    31   ar
    30    30    32    1
    31    10    11    1
    32    11    12    1
    33    12    13    1
    34     1     4    1
@<TRIPOS>MOLECULE
ZINC10304632
 28 30 0 0 0
SMALL
GASTEIGER

@<TRIPOS>ATOM
      1 N          23.1737   40.1996   27.9903 N.ar    1  UNL1       -0.2900
      2 C          23.2244   41.5702   28.1167 C.ar    1  UNL1        0.1728
      3 N          22.0115   41.9728   28.4258 N.ar    1  UNL1       -0.1277
      4 N          21.2209   40.9629   28.5049 N.ar    1  UNL1       -0.1221
      5 C          21.8771   39.8535   28.2518 C.ar    1  UNL1        0.1936
      6 C          24.4100   42.4229   27.9340 C.ar    1  UNL1        0.0654
      7 C          25.1085   42.6982   26.7857 C.ar    1  UNL1        0.0101
      8 C          26.1951   43.5404   26.8593 C.ar    1  UNL1        0.0076
      9 C          26.5485   44.0621   28.0624 C.ar    1  UNL1        0.0355
     10 S          25.3133   43.3691   29.1491 S.2     1  UNL1       -0.0833
     11 C          24.2790   39.3002   27.6501 C.3     1  UNL1        0.1094
     12 C          24.8557   37.4597   29.2381 C.3     1  UNL1        0.0020
     13 C          25.0549   38.9428   28.9194 C.3     1  UNL1        0.0227
     14 C          26.5434   39.2224   28.7029 C.3     1  UNL1        0.0020
     15 S          21.2090   38.2231   28.2442 S.3     1  UNL1       -0.0673
     16 C          20.9837   37.9674   30.0219 C.3     1  UNL1        0.1340
     17 C          19.6378   38.5013   30.4396 C.2     1  UNL1        0.1844
     18 O          18.6749   38.3493   29.7184 O.2     1  UNL1       -0.2904
     19 C          19.4922   39.2065   31.7221 C.ar    1  UNL1        0.0373
     20 C          20.6113   39.4329   32.5308 C.ar    1  UNL1        0.0038
     21 C          20.4683   40.0994   33.7283 C.ar    1  UNL1        0.0132
     22 C          19.2179   40.5349   34.1378 C.ar    1  UNL1        0.0801
     23 C          18.1044   40.3092   33.3448 C.ar    1  UNL1        0.1534
     24 C          18.2334   39.6490   32.1418 C.ar    1  UNL1        0.0278
     25 CL         19.0461   41.3679   35.6511 Cl      1  UNL1       -0.0805
     26 N          16.7733   40.7787   33.7904 N.pl3   1  UNL1        0.0585
     27 O          16.4676   41.9511   33.6647 O.2     1  UNL1       -0.1261
     28 O          15.9837   39.9929   34.2828 O.2     1  UNL1       -0.1261
@<TRIPOS>BOND
     1    12    13    1
     2    13    14    1
     3    13    11    1
     4    11     1    1
     5     1     5   ar
     6     1     2   ar
     7     2     3   ar
     8     2     6    1
     9     3     4   ar
    10     4     5   ar
    11     5    15    1
    12    15    16    1
    13    16    17    1
    14    17    18    2
    15    17    19    1
    16    19    24   ar
    17    19    20   ar
    18    20    21   ar
    19    21    22   ar
    20    22    23   ar
    21    22    25    1
    22    23    24   ar
    23    23    26    1
    24    26    27    2
    25    26    28    2
    26     6    10   ar
    27     6     7   ar
    28     7     8   ar
    29     8     9   ar
    30     9    10   ar
@<TRIPOS>MOLECULE
ZINC14358722
 31 33 0 0 0
SMALL
GASTEIGER

@<TRIPOS>ATOM
      1 N          28.4164   33.8022   29.1130 N.2     1  UNL1       -0.1818
      2 C          27.7759   34.8453   29.6442 C.2     1  UNL1        0.3210
      3 N          27.9559   35.3996   30.8802 N.am    1  UNL1       -0.1963
      4 C          27.2213   36.4423   31.2399 C.2     1  UNL1        0.2635
      5 O          27.3382   36.9756   32.3270 O.2     1  UNL1       -0.2689
      6 C          26.2491   36.9131   30.2288 C.2     1  UNL1        0.0902
      7 C          25.3452   37.9725   30.3051 C.2     1  UNL1        0.0113
      8 S          26.5210   35.8000   28.9270 S.3     1  UNL1        0.0027
      9 H          29.0704   33.3002   29.6511 H       1  UNL1        0.4555
     10 C          28.8929   34.0720   26.7399 C.ar    1  UNL1        0.2017
     11 C          28.6098   33.6605   25.4457 C.ar    1  UNL1        0.0431
     12 C          27.6593   32.6847   25.2227 C.ar    1  UNL1        0.0035
     13 C          26.9689   32.0869   26.2779 C.ar    1  UNL1        0.0063
     14 C          27.2049   32.4425   27.5665 C.ar    1  UNL1        0.0725
     15 C          28.1715   33.4408   27.8573 C.ar    1  UNL1        0.2591
     16 C          29.5356   36.3381   26.4666 C.3     1  UNL1        0.2528
     17 O          29.8169   35.0309   26.9709 O.3     1  UNL1       -0.4655
     18 C          24.3899   38.1629   29.2786 C.ar    1  UNL1        0.0023
     19 C          24.7396   38.8557   28.1044 C.ar    1  UNL1        0.0001
     20 C          23.8116   39.0347   27.1184 C.ar    1  UNL1        0.0017
     21 C          22.5256   38.5375   27.2670 C.ar    1  UNL1        0.0241
     22 C          22.1643   37.8525   28.4174 C.ar    1  UNL1        0.1429
     23 C          23.0832   37.6605   29.4242 C.ar    1  UNL1        0.0241
     24 N          20.7900   37.3218   28.5603 N.pl3   1  UNL1        0.0577
     25 O          20.3836   36.3314   27.7931 O.2     1  UNL1       -0.1261
     26 O          19.9738   37.8397   29.4546 O.2     1  UNL1       -0.1261
     27 C          28.9522   34.8453   31.8002 C.3     1  UNL1        0.1055
     28 C          28.3172   33.7233   32.6241 C.3     1  UNL1        0.0337
     29 C          28.7842   33.8304   34.0771 C.3     1  UNL1        0.0594
     30 S          27.4690   34.5729   35.0819 S.3     1  UNL1       -0.1393
     31 C          28.3113   35.8876   36.0053 C.3     1  UNL1        0.0692
@<TRIPOS>UNITY_ATOM_ATTR
1 1
charge 1
@<TRIPOS>BOND
     1    16    17    1
     2    17    10    1
     3    10    15   ar
     4    10    11   ar
     5    11    12   ar
     6    12    13   ar
     7    13    14   ar
     8    14    15   ar
     9    15     1    1
    10     1     2    2
    11     2     8    1
    12     2     3    1
    13     3     4   am
    14     3    27    1
    15     4     5    2
    16     4     6    1
    17     6     7    2
    18     6     8    1
    19     7    18    1
    20    18    23   ar
    21    18    19   ar
    22    19    20   ar
    23    20    21   ar
    24    21    22   ar
    25    22    23   ar
    26    22    24    1
    27    24    25    2
    28    24    26    2
    29    27    28    1
    30    28    29    1
    31    29    30    1
    32    30    31    1
    33     1     9    1
@<TRIPOS>MOLECULE
ZINC13962983
 31 33 0 0 0
SMALL
GASTEIGER

@<TRIPOS>ATOM
      1 N          22.7502   39.3137   28.9431 N.ar    1  UNL1       -0.3064
      2 C          23.9926   39.8381   28.6572 C.ar    1  UNL1        0.0674
      3 C          25.2429   39.1966   28.7209 C.ar    1  UNL1        0.0180
      4 C          26.3889   39.8591   28.4093 C.ar    1  UNL1        0.0080
      5 C          26.3658   41.2016   28.0146 C.ar    1  UNL1        0.0762
      6 C          25.1356   41.8646   27.9425 C.ar    1  UNL1        0.0144
      7 C          23.9877   41.1857   28.2592 C.ar    1  UNL1        0.0481
      8 S          22.2662   41.6168   28.3053 S.2     1  UNL1       -0.0514
      9 C          21.6370   40.0854   28.8217 C.ar    1  UNL1        0.1672
     10 N          20.3700   39.7482   29.0500 N.am    1  UNL1       -0.1555
     11 C          20.0852   38.5833   29.6231 C.2     1  UNL1        0.2517
     12 O          20.0531   37.5684   28.9542 O.2     1  UNL1       -0.2726
     13 C          19.8022   38.5205   31.1020 C.3     1  UNL1        0.1135
     14 C          18.3458   38.8198   31.3477 C.ar    1  UNL1       -0.0134
     15 C          17.4144   38.5853   30.3532 C.ar    1  UNL1       -0.0041
     16 C          16.0796   38.8658   30.5764 C.ar    1  UNL1       -0.0049
     17 C          15.6756   39.3804   31.7945 C.ar    1  UNL1       -0.0258
     18 C          16.6067   39.6149   32.7887 C.ar    1  UNL1       -0.0261
     19 C          17.9420   39.3343   32.5653 C.ar    1  UNL1       -0.0084
     20 C          16.1664   40.1758   34.1163 C.3     1  UNL1        0.0307
     21 C          14.2201   39.6853   32.0383 C.3     1  UNL1        0.0307
     22 C          27.6178   41.9062   27.6803 C.2     1  UNL1        0.3412
     23 O          28.5228   41.9541   28.4895 O.2     1  UNL1       -0.2449
     24 O          27.7579   42.4969   26.4773 O.3     1  UNL1       -0.4454
     25 C          28.2572   43.8603   26.4665 C.3     1  UNL1        0.2089
     26 C          27.1060   44.8272   26.7501 C.3     1  UNL1        0.0513
     27 C          22.6283   37.9191   29.3749 C.3     1  UNL1        0.1397
     28 C          23.3916   37.7226   30.6861 C.3     1  UNL1        0.1666
     29 O          24.0819   36.4718   30.6527 O.3     1  UNL1       -0.3517
     30 C          25.4790   34.8101   31.7144 C.3     1  UNL1        0.0346
     31 C          24.8513   36.2010   31.8260 C.3     1  UNL1        0.1423
@<TRIPOS>BOND
     1    30    31    1
     2    31    29    1
     3    29    28    1
     4    28    27    1
     5    27     1    1
     6     1     9   ar
     7     1     2   ar
     8     2     7   ar
     9     2     3   ar
    10     3     4   ar
    11     4     5   ar
    12     5     6   ar
    13     5    22    1
    14     6     7   ar
    15     7     8   ar
    16     8     9   ar
    17     9    10    2
    18    10    11    1
    19    11    12    2
    20    11    13    1
    21    13    14    1
    22    14    19   ar
    23    14    15   ar
    24    15    16   ar
    25    16    17   ar
    26    17    18   ar
    27    17    21    1
    28    18    19   ar
    29    18    20    1
    30    22    23    2
    31    22    24    1
    32    24    25    1
    33    25    26    1
@<TRIPOS>MOLECULE
ZINC23613622
 33 35 0 0 0
SMALL
GASTEIGER

@<TRIPOS>ATOM
      1 C          18.4597   37.6265   30.7955 C.3     1  UNL1        0.1699
      2 N          19.3157   38.8041   30.9919 N.4     1  UNL1        0.3008
      3 H          20.1555   38.5022   31.4861 H       1  UNL1        0.2096
      4 C          19.7307   39.3740   29.7032 C.3     1  UNL1        0.2319
      5 N          21.0067   38.7812   29.2952 N.ar    1  UNL1       -0.1849
      6 C          21.9738   38.5684   30.2095 C.ar    1  UNL1        0.3428
      7 O          21.7872   38.8681   31.3723 O.2     1  UNL1       -0.2458
      8 N          23.1476   38.0226   29.8343 N.ar    1  UNL1       -0.2298
      9 C          23.3530   37.6863   28.5455 C.ar    1  UNL1        0.3388
     10 O          24.4097   37.1904   28.2079 O.2     1  UNL1       -0.2460
     11 N          22.3876   37.9035   27.6303 N.ar    1  UNL1       -0.2298
     12 C          21.2135   38.4484   28.0058 C.ar    1  UNL1        0.3428
     13 O          20.3415   38.6400   27.1814 O.2     1  UNL1       -0.2458
     14 C          22.6124   37.5417   26.2286 C.3     1  UNL1        0.1415
     15 C          23.1745   38.7275   25.4877 C.2     1  UNL1       -0.0015
     16 C          24.4429   38.7546   25.1611 C.2     1  UNL1       -0.0029
     17 C          24.1986   37.7908   30.8283 C.3     1  UNL1        0.1415
     18 C          24.2106   36.3347   31.2164 C.2     1  UNL1       -0.0015
     19 C          25.3407   35.6725   31.2404 C.2     1  UNL1       -0.0029
     20 C          18.6420   39.8123   31.8211 C.3     1  UNL1        0.1035
     21 C          17.1666   39.5108   31.8789 C.ar    1  UNL1        0.0313
     22 C          16.5289   39.4135   33.1015 C.ar    1  UNL1        0.0038
     23 C          15.1747   39.1427   33.1555 C.ar    1  UNL1        0.0295
     24 C          14.4591   38.9571   31.9847 C.ar    1  UNL1        0.1401
     25 C          15.1002   39.0491   30.7609 C.ar    1  UNL1        0.0295
     26 C          16.4531   39.3261   30.7092 C.ar    1  UNL1        0.0038
     27 F          13.1366   38.6859   32.0365 F       1  UNL1       -0.2042
     28 C          19.2158   39.7819   33.2142 C.ar    1  UNL1        0.0311
     29 C          19.6050   40.9583   33.8272 C.ar    1  UNL1        0.0015
     30 C          20.1272   40.9309   35.1068 C.ar    1  UNL1       -0.0001
     31 C          20.2688   39.7263   35.7700 C.ar    1  UNL1       -0.0000
     32 C          19.8845   38.5494   35.1550 C.ar    1  UNL1       -0.0001
     33 C          19.3581   38.5772   33.8771 C.ar    1  UNL1        0.0015
@<TRIPOS>UNITY_ATOM_ATTR
2 1
charge 1
@<TRIPOS>BOND
     1     1     2    1
     2     2     4    1
     3     2    20    1
     4     4     5    1
     5     5    12   ar
     6     5     6   ar
     7     6     7    2
     8     6     8   ar
     9     8     9   ar
    10     8    17    1
    11     9    10    2
    12     9    11   ar
    13    11    12   ar
    14    11    14    1
    15    12    13    2
    16    14    15    1
    17    15    16    2
    18    17    18    1
    19    18    19    2
    20    20    28    1
    21    20    21    1
    22    28    33   ar
    23    28    29   ar
    24    29    30   ar
    25    30    31   ar
    26    31    32   ar
    27    32    33   ar
    28    21    26   ar
    29    21    22   ar
    30    22    23   ar
    31    23    24   ar
    32    24    25   ar
    33    24    27    1
    34    25    26   ar
    35     2     3    1
@<TRIPOS>MOLECULE
ZINC29664250
 29 31 0 0 0
SMALL
GASTEIGER

@<TRIPOS>ATOM
      1 C          23.1808   38.8186   28.7841 C.ar    1  UNL1        0.1717
      2 N          22.9251   40.0460   28.4028 N.ar    1  UNL1       -0.2211
      3 C          24.0583   40.7922   28.4763 C.ar    1  UNL1        0.1004
      4 C          24.3462   42.1302   28.1950 C.ar    1  UNL1        0.0393
      5 C          25.6256   42.6065   28.3736 C.ar    1  UNL1        0.1158
      6 C          26.6326   41.7667   28.8260 C.ar    1  UNL1        0.0202
      7 C          26.3633   40.4443   29.1134 C.ar    1  UNL1        0.0201
      8 C          25.0806   39.9475   28.9393 C.ar    1  UNL1        0.0793
      9 N          24.4987   38.7044   29.1262 N.ar    1  UNL1       -0.3065
     10 S          25.9881   44.2937   28.0180 S.O2    1  UNL1        0.0920
     11 O          25.6565   44.4544   26.6456 O.2     1  UNL1       -0.1612
     12 O          27.3233   44.4803   28.4674 O.2     1  UNL1       -0.1612
     13 C          24.8418   45.2450   29.0533 C.3     1  UNL1        0.5262
     14 F          25.0606   46.6127   28.8560 F       1  UNL1       -0.1500
     15 F          25.0560   44.9280   30.3990 F       1  UNL1       -0.1500
     16 F          23.5249   44.9282   28.7034 F       1  UNL1       -0.1500
     17 C          25.1713   37.4926   29.6012 C.3     1  UNL1        0.1080
     18 C          25.8785   36.8092   28.4292 C.3     1  UNL1        0.0265
     19 S          22.0013   37.5111   28.8467 S.3     1  UNL1       -0.0673
     20 C          20.4779   38.4485   28.5694 C.3     1  UNL1        0.1527
     21 C          19.1124   38.7766   31.8733 C.ar    1  UNL1        0.1805
     22 N          20.1660   38.8319   31.0392 N.ar    1  UNL1       -0.1941
     23 C          19.6946   38.5258   29.8544 C.ar    1  UNL1        0.2477
     24 O          18.3879   38.2894   30.0054 O.2     1  UNL1       -0.3364
     25 N          18.0748   38.4384   31.1678 N.ar    1  UNL1       -0.0606
     26 C          19.1326   39.0511   33.3550 C.3     1  UNL1        0.0692
     27 C          20.5668   39.3446   33.7998 C.3     1  UNL1        0.0081
     28 C          19.1961   41.1268   34.8891 C.3     1  UNL1        0.0000
     29 C          20.5534   40.4209   34.8871 C.3     1  UNL1        0.0005
@<TRIPOS>BOND
     1    28    29    1
     2    29    27    1
     3    27    26    1
     4    26    21    1
     5    21    25   ar
     6    21    22   ar
     7    22    23   ar
     8    23    24   ar
     9    23    20    1
    10    24    25   ar
    11    20    19    1
    12    19     1    1
    13     1     9   ar
    14     1     2   ar
    15     2     3   ar
    16     3     8   ar
    17     3     4   ar
    18     4     5   ar
    19     5     6   ar
    20     5    10    1
    21     6     7   ar
    22     7     8   ar
    23     8     9   ar
    24     9    17    1
    25    17    18    1
    26    10    11    2
    27    10    12    2
    28    10    13    1
    29    13    14    1
    30    13    15    1
    31    13    16    1
@<TRIPOS>MOLECULE
ZINC14251372
 28 30 0 0 0
SMALL
GASTEIGER

@<TRIPOS>ATOM
      1 N          20.4760   38.9377   27.8603 N.pl3   1  UNL1       -0.5035
      2 C          20.1878   39.0670   29.2202 C.ar    1  UNL1        0.0807
      3 N          20.8201   39.8755   30.0762 N.ar    1  UNL1       -0.2273
      4 C          20.2977   39.7519   31.2699 C.ar    1  UNL1        0.1956
      5 N          19.3111   38.8425   31.2044 N.ar    1  UNL1       -0.2273
      6 N          19.2554   38.4107   29.8692 N.ar    1  UNL1       -0.1724
      7 C          18.4612   38.3899   32.3085 C.3     1  UNL1        0.1572
      8 C          17.4901   39.4823   32.6753 C.ar    1  UNL1        0.0233
      9 C          16.3280   39.6495   31.9438 C.ar    1  UNL1        0.0564
     10 C          15.4339   40.6487   32.2849 C.ar    1  UNL1        0.0112
     11 C          15.7075   41.4877   33.3487 C.ar    1  UNL1        0.0017
     12 C          16.8713   41.3249   34.0764 C.ar    1  UNL1        0.0112
     13 C          17.7632   40.3221   33.7401 C.ar    1  UNL1        0.0564
     14 CL         19.2246   40.1174   34.6545 Cl      1  UNL1       -0.0825
     15 CL         15.9878   38.6006   30.6029 Cl      1  UNL1       -0.0825
     16 S          21.3270   37.6258   27.3153 S.O2    1  UNL1       -0.0559
     17 O          21.7076   37.9160   25.9773 O.2     1  UNL1       -0.1841
     18 O          20.5651   36.4764   27.6584 O.2     1  UNL1       -0.1841
     19 C          25.1477   37.4237   29.7342 C.ar    1  UNL1       -0.0221
     20 C          25.1840   37.8481   28.4191 C.ar    1  UNL1       -0.0030
     21 C          24.0175   37.9078   27.6798 C.ar    1  UNL1        0.0166
     22 C          22.8149   37.5428   28.2554 C.ar    1  UNL1        0.0893
     23 C          22.7787   37.1179   29.5703 C.ar    1  UNL1        0.0166
     24 C          23.9450   37.0595   30.3102 C.ar    1  UNL1       -0.0030
     25 C          26.4195   37.3576   30.5400 C.3     1  UNL1        0.0264
     26 C          26.5027   36.0058   31.2518 C.3     1  UNL1        0.0047
     27 C          25.3607   35.3625   33.3789 C.3     1  UNL1        0.0000
     28 C          26.4668   36.2236   32.7658 C.3     1  UNL1        0.0003
@<TRIPOS>UNITY_ATOM_ATTR
1 1
charge -1
@<TRIPOS>BOND
     1    27    28    1
     2    28    26    1
     3    26    25    1
     4    25    19    1
     5    19    24   ar
     6    19    20   ar
     7    20    21   ar
     8    21    22   ar
     9    22    23   ar
    10    22    16    1
    11    23    24   ar
    12    16    17    2
    13    16    18    2
    14    16     1    1
    15     1     2    1
    16     2     6   ar
    17     2     3   ar
    18     3     4   ar
    19     4     5   ar
    20     5     6   ar
    21     5     7    1
    22     7     8    1
    23     8    13   ar
    24     8     9   ar
    25     9    10   ar
    26     9    15    1
    27    10    11   ar
    28    11    12   ar
    29    12    13   ar
    30    13    14    1
@<TRIPOS>MOLECULE
ZINC31068806
 33 36 0 0 0
SMALL
GASTEIGER

@<TRIPOS>ATOM
      1 C          23.6079   38.9218   26.4799 C.2     1  UNL1        0.2708
      2 O          23.4003   38.5854   25.3333 O.2     1  UNL1       -0.2708
      3 N          24.4016   39.9801   26.7384 N.am    1  UNL1       -0.2683
      4 C          22.9786   38.1567   27.6155 C.3     1  UNL1        0.2929
      5 O          21.6167   38.6191   27.8145 O.3     1  UNL1       -0.4365
      6 C          20.7847   37.7998   28.4858 C.2     1  UNL1        0.3192
      7 O          20.6059   36.6641   28.0959 O.2     1  UNL1       -0.2469
      8 C          15.8706   40.1323   34.2461 C.3     1  UNL1        0.0310
      9 C          16.6361   39.6501   33.0409 C.ar    1  UNL1       -0.0219
     10 C          15.9472   39.2296   31.9106 C.ar    1  UNL1       -0.0061
     11 C          16.6260   38.7854   30.7978 C.ar    1  UNL1       -0.0242
     12 C          18.0186   38.7570   30.8039 C.ar    1  UNL1       -0.1160
     13 C          18.7107   39.1844   31.9525 C.ar    1  UNL1        0.0164
     14 C          18.0021   39.6308   33.0693 C.ar    1  UNL1       -0.0029
     15 C          20.1823   39.1481   31.9431 C.ar    1  UNL1        0.1923
     16 O          20.8267   39.5079   32.9136 O.2     1  UNL1       -0.2867
     17 C          20.8275   38.6746   30.7690 C.ar    1  UNL1        0.0243
     18 C          20.0876   38.2846   29.7004 C.ar    1  UNL1       -0.0386
     19 N          18.7230   38.3183   29.7080 N.ar    1  UNL1       -0.6529
     20 C          24.9296   40.7865   25.6353 C.3     1  UNL1        0.1206
     21 C          26.4271   40.6308   25.5712 C.ar    1  UNL1       -0.0023
     22 C          26.9813   39.4120   25.2272 C.ar    1  UNL1       -0.0026
     23 C          28.3550   39.2706   25.1636 C.ar    1  UNL1       -0.0003
     24 C          29.1745   40.3452   25.4540 C.ar    1  UNL1       -0.0000
     25 C          28.6205   41.5624   25.8035 C.ar    1  UNL1       -0.0003
     26 C          27.2468   41.7054   25.8619 C.ar    1  UNL1       -0.0026
     27 C          24.7362   40.3239   28.1226 C.3     1  UNL1        0.1206
     28 C          24.2524   41.7188   28.4248 C.ar    1  UNL1       -0.0023
     29 C          22.9050   42.0164   28.3406 C.ar    1  UNL1       -0.0026
     30 C          22.4607   43.2948   28.6226 C.ar    1  UNL1       -0.0003
     31 C          23.3648   44.2777   28.9791 C.ar    1  UNL1       -0.0000
     32 C          24.7127   43.9815   29.0579 C.ar    1  UNL1       -0.0003
     33 C          25.1565   42.7020   28.7810 C.ar    1  UNL1       -0.0026
@<TRIPOS>UNITY_ATOM_ATTR
19 1
charge -1
@<TRIPOS>BOND
     1     8     9    1
     2     9    14   ar
     3     9    10   ar
     4    10    11   ar
     5    11    12   ar
     6    12    19   ar
     7    12    13   ar
     8    13    14   ar
     9    13    15   ar
    10    15    16    2
    11    15    17   ar
    12    17    18   ar
    13    18    19   ar
    14    18     6    1
    15     6     7    2
    16     6     5    1
    17     5     4    1
    18     4     1    1
    19     1     2    2
    20     1     3   am
    21     3    20    1
    22     3    27    1
    23    20    21    1
    24    21    26   ar
    25    21    22   ar
    26    22    23   ar
    27    23    24   ar
    28    24    25   ar
    29    25    26   ar
    30    27    28    1
    31    28    33   ar
    32    28    29   ar
    33    29    30   ar
    34    30    31   ar
    35    31    32   ar
    36    32    33   ar
@<TRIPOS>MOLECULE
ZINC09386964
 32 34 0 0 0
SMALL
GASTEIGER

@<TRIPOS>ATOM
      1 N          13.0631   38.0663   29.4820 N.am    1  UNL1       -0.1436
      2 C          13.2890   37.8133   28.1778 C.2     1  UNL1        0.2336
      3 O          14.3421   37.9103   27.5846 O.2     1  UNL1       -0.2742
      4 C          11.9542   37.3762   27.6079 C.3     1  UNL1        0.0079
      5 N          11.0440   37.4474   28.7640 N.am    1  UNL1       -0.6077
      6 C          11.7833   37.8564   29.8109 C.2     1  UNL1        0.1584
      7 O          11.3383   38.0175   30.9304 O.2     1  UNL1       -0.2949
      8 C          12.0367   35.9442   27.0752 C.3     1  UNL1       -0.0082
      9 C          11.5080   38.3220   26.5228 C.ar    1  UNL1       -0.0330
     10 C          12.2071   38.3846   25.3315 C.ar    1  UNL1       -0.0023
     11 C          11.7968   39.2468   24.3331 C.ar    1  UNL1        0.0367
     12 C          10.6894   40.0587   24.5311 C.ar    1  UNL1        0.1443
     13 C           9.9931   39.9980   25.7295 C.ar    1  UNL1        0.0367
     14 C          10.4038   39.1298   26.7225 C.ar    1  UNL1       -0.0023
     15 O          10.2877   40.9124   23.5530 O.3     1  UNL1       -0.4236
     16 C          11.3122   41.5735   22.8078 C.3     1  UNL1        0.5087
     17 F          10.7570   42.1469   21.6588 F       1  UNL1       -0.1550
     18 F          11.8900   42.5746   23.5961 F       1  UNL1       -0.1550
     19 C          13.7349   39.3050   31.3472 C.2     1  UNL1        0.1183
     20 N          14.0470   38.4952   30.3824 N.2     1  UNL1       -0.1688
     21 C          16.7676   40.8580   33.8797 C.ar    1  UNL1        0.1386
     22 C          16.1862   41.6721   32.9160 C.ar    1  UNL1        0.0369
     23 C          15.2015   41.1723   32.0919 C.ar    1  UNL1        0.0047
     24 C          14.7880   39.8443   32.2266 C.ar    1  UNL1        0.0209
     25 C          15.3717   39.0306   33.2014 C.ar    1  UNL1        0.0047
     26 C          16.3600   39.5371   34.0169 C.ar    1  UNL1        0.0369
     27 O          17.7379   41.3549   34.6900 O.3     1  UNL1       -0.4755
     28 C          19.0450   41.4911   34.1287 C.3     1  UNL1        0.2054
     29 C          20.0634   40.7932   35.0325 C.3     1  UNL1        0.0473
     30 C          19.5747   38.3433   35.0728 C.3     1  UNL1        0.0001
     31 C          20.4327   39.4355   34.4313 C.3     1  UNL1        0.0037
     32 C          20.1816   39.4609   32.9222 C.3     1  UNL1        0.0001
@<TRIPOS>UNITY_ATOM_ATTR
5 1
charge -1
@<TRIPOS>BOND
     1    30    31    1
     2    31    32    1
     3    31    29    1
     4    29    28    1
     5    28    27    1
     6    27    21    1
     7    21    26   ar
     8    21    22   ar
     9    22    23   ar
    10    23    24   ar
    11    24    25   ar
    12    24    19    1
    13    25    26   ar
    14    19    20    2
    15    20     1    1
    16     1     6   am
    17     1     2   am
    18     2     3    2
    19     2     4    1
    20     4     5    1
    21     4     8    1
    22     4     9    1
    23     5     6    1
    24     6     7    2
    25     9    14   ar
    26     9    10   ar
    27    10    11   ar
    28    11    12   ar
    29    12    13   ar
    30    12    15    1
    31    13    14   ar
    32    15    16    1
    33    16    17    1
    34    16    18    1
@<TRIPOS>MOLECULE
ZINC08821717
 31 33 0 0 0
SMALL
GASTEIGER

@<TRIPOS>ATOM
      1 C          20.2150   38.3363   29.5356 C.2     1  UNL1        0.0126
      2 C          19.6718   38.8018   30.6939 C.2     1  UNL1        0.0850
      3 C          18.3188   38.7529   31.1464 C.2     1  UNL1        0.2595
      4 O          17.4484   38.2392   30.4667 O.2     1  UNL1       -0.2690
      5 N          18.0394   39.2782   32.3266 N.am    1  UNL1       -0.2441
      6 C          19.0043   39.8544   33.0774 C.2     1  UNL1        0.1212
      7 S          18.8684   40.5952   34.6148 S.2     1  UNL1       -0.0272
      8 S          20.4572   39.6477   32.0588 S.3     1  UNL1       -0.0604
      9 C          25.0212   36.9863   29.3721 C.3     1  UNL1        0.1305
     10 N          23.8109   37.8034   29.2551 N.ar    1  UNL1       -0.3240
     11 C          22.5570   37.3781   29.5552 C.ar    1  UNL1        0.0759
     12 C          21.6631   38.3883   29.3341 C.ar    1  UNL1        0.0193
     13 C          22.4472   39.5415   28.8524 C.ar    1  UNL1        0.0173
     14 C          23.7853   39.1159   28.8298 C.ar    1  UNL1        0.0600
     15 C          24.7742   39.9977   28.4067 C.ar    1  UNL1        0.0172
     16 C          24.4363   41.2781   28.0251 C.ar    1  UNL1        0.0015
     17 C          23.1148   41.6984   28.0531 C.ar    1  UNL1        0.0001
     18 C          22.1201   40.8378   28.4645 C.ar    1  UNL1        0.0015
     19 C          16.6626   39.2409   32.8256 C.3     1  UNL1        0.0995
     20 C          15.9584   40.5540   32.4780 C.3     1  UNL1        0.0219
     21 C          14.4735   40.2852   32.2257 C.3     1  UNL1        0.0018
     22 C          14.3247   39.0910   31.2808 C.3     1  UNL1        0.0001
     23 C          12.8912   38.5608   31.3508 C.3     1  UNL1        0.0000
     24 C          12.5006   37.9666   29.9962 C.3     1  UNL1        0.0000
     25 C          13.7601   37.5095   29.2575 C.3     1  UNL1        0.0000
     26 C          13.4125   37.2001   27.7999 C.3     1  UNL1        0.0004
     27 C          11.9382   37.5223   27.5478 C.3     1  UNL1        0.0059
     28 C          11.2760   36.3478   26.8247 C.3     1  UNL1        0.0417
     29 C          10.6749   36.8297   25.5295 C.2     1  UNL1        0.0503
     30 O          10.0907   37.8867   25.4910 O.co2   1  UNL1       -0.5492
     31 O          10.7885   36.0849   24.4187 O.co2   1  UNL1       -0.5492
@<TRIPOS>UNITY_ATOM_ATTR
31 1
charge -1
@<TRIPOS>BOND
     1     9    10    1
     2    10    14   ar
     3    10    11   ar
     4    11    12   ar
     5    12    13   ar
     6    12     1    1
     7    13    18   ar
     8    13    14   ar
     9    14    15   ar
    10    15    16   ar
    11    16    17   ar
    12    17    18   ar
    13     1     2    2
    14     2     8    1
    15     2     3    1
    16     3     4    2
    17     3     5   am
    18     5     6    1
    19     5    19    1
    20     6     7    2
    21     6     8    1
    22    19    20    1
    23    20    21    1
    24    21    22    1
    25    22    23    1
    26    23    24    1
    27    24    25    1
    28    25    26    1
    29    26    27    1
    30    27    28    1
    31    28    29    1
    32    29    30   ar
    33    29    31   ar
@<TRIPOS>MOLECULE
ZINC09424641
 31 33 0 0 0
SMALL
GASTEIGER

@<TRIPOS>ATOM
      1 C          21.5868   51.3508   24.5602 C.ar    1  UNL1        0.0887
      2 C          22.6558   50.9745   25.4071 C.ar    1  UNL1        0.1379
      3 N          22.3951   50.4988   26.6161 N.ar    1  UNL1       -0.2130
      4 C          21.1449   50.3510   27.0552 C.ar    1  UNL1        0.1514
      5 C          20.9291   49.8333   28.3450 C.ar    1  UNL1        0.0376
      6 C          19.6544   49.6837   28.8048 C.ar    1  UNL1        0.0046
      7 C          18.5768   50.0478   27.9859 C.ar    1  UNL1        0.0192
      8 C          18.8027   50.5434   26.7485 C.ar    1  UNL1        0.0844
      9 N          20.0735   50.6973   26.2796 N.ar    1  UNL1       -0.2577
     10 C          20.2639   51.1958   25.0390 C.ar    1  UNL1        0.2685
     11 O          19.3125   51.5074   24.3435 O.2     1  UNL1       -0.2665
     12 N          22.0936   50.3235   19.9564 N.am    1  UNL1       -0.2441
     13 C          22.1657   51.3129   20.8296 C.2     1  UNL1        0.2595
     14 O          22.5095   52.4297   20.4841 O.2     1  UNL1       -0.2690
     15 C          21.8353   51.0357   22.1868 C.2     1  UNL1        0.0852
     16 C          21.8337   51.8693   23.2676 C.2     1  UNL1        0.0187
     17 S          21.4155   49.3010   22.0882 S.3     1  UNL1       -0.0604
     18 C          21.7053   49.0864   20.3386 C.2     1  UNL1        0.1212
     19 S          21.5346   47.6731   19.3875 S.2     1  UNL1       -0.0272
     20 C          22.4327   50.5726   18.5531 C.3     1  UNL1        0.0995
     21 C          21.1952   51.0830   17.8123 C.3     1  UNL1        0.0219
     22 C          21.0961   50.3941   16.4497 C.3     1  UNL1        0.0018
     23 C          18.8266   51.4123   16.6845 C.3     1  UNL1        0.0000
     24 C          19.6258   50.2757   16.0438 C.3     1  UNL1        0.0001
     25 N          23.9590   51.1087   24.9806 N.pl3   1  UNL1       -0.2931
     26 C          24.5934   52.2859   25.5889 C.3     1  UNL1        0.0922
     27 C          25.7902   51.8415   26.4322 C.3     1  UNL1        0.0215
     28 C          26.2237   52.9889   27.3468 C.3     1  UNL1        0.0018
     29 C          24.7322   49.8912   25.2592 C.3     1  UNL1        0.0922
     30 C          24.7388   48.9961   24.0183 C.3     1  UNL1        0.0215
     31 C          25.2345   49.7983   22.8135 C.3     1  UNL1        0.0018
@<TRIPOS>BOND
     1    23    24    1
     2    24    22    1
     3    22    21    1
     4    21    20    1
     5    20    12    1
     6    12    18    1
     7    12    13   am
     8    13    14    2
     9    13    15    1
    10    15    16    2
    11    15    17    1
    12    16     1    1
    13     1    10   ar
    14     1     2   ar
    15     2     3   ar
    16     2    25    1
    17     3     4   ar
    18     4     9   ar
    19     4     5   ar
    20     5     6   ar
    21     6     7   ar
    22     7     8   ar
    23     8     9   ar
    24     9    10   ar
    25    10    11    2
    26    25    26    1
    27    25    29    1
    28    26    27    1
    29    27    28    1
    30    29    30    1
    31    30    31    1
    32    17    18    1
    33    18    19    2
@<TRIPOS>MOLECULE
ZINC27778828
 31 34 0 0 0
SMALL
GASTEIGER

@<TRIPOS>ATOM
      1 C          18.4570   38.8867   31.0075 C.ar    1  UNL1        0.1744
      2 N          17.7284   38.3507   30.0492 N.ar    1  UNL1       -0.2158
      3 C          16.4025   38.3593   30.1176 C.ar    1  UNL1        0.1168
      4 C          15.7138   38.9283   31.2020 C.ar    1  UNL1        0.0762
      5 C          14.2525   38.8631   31.1364 C.ar    1  UNL1       -0.0136
      6 C          13.7145   38.2693   30.0521 C.ar    1  UNL1        0.0049
      7 S          15.0999   37.7678   29.0666 S.2     1  UNL1       -0.0725
      8 C          12.2592   38.0776   29.7505 C.3     1  UNL1        0.0327
      9 C          11.4607   38.3277   31.0378 C.3     1  UNL1        0.0055
     10 C          11.9517   39.6307   31.6752 C.3     1  UNL1        0.0050
     11 C          13.3612   39.4358   32.2350 C.3     1  UNL1        0.0268
     12 C          16.5303   39.4981   32.2295 C.ar    1  UNL1        0.2639
     13 O          16.0203   40.0146   33.2089 O.2     1  UNL1       -0.2669
     14 N          17.8691   39.4562   32.0995 N.ar    1  UNL1       -0.2756
     15 S          20.2142   38.8626   30.8798 S.3     1  UNL1       -0.0686
     16 C          20.3982   38.8264   29.0796 C.3     1  UNL1        0.1336
     17 C          20.8872   37.4434   28.6446 C.3     1  UNL1        0.0221
     18 C          22.4647   41.6768   28.3773 C.ar    1  UNL1        0.1805
     19 N          21.3849   41.1414   28.9742 N.ar    1  UNL1       -0.1942
     20 C          21.4000   39.8695   28.6559 C.ar    1  UNL1        0.2464
     21 O          22.4704   39.6761   27.8795 O.2     1  UNL1       -0.3365
     22 N          23.0660   40.7224   27.7323 N.ar    1  UNL1       -0.0606
     23 C          22.8952   43.1197   28.4405 C.3     1  UNL1        0.0692
     24 C          24.3930   43.1921   28.7445 C.3     1  UNL1        0.0081
     25 C          24.8293   45.6391   28.4912 C.3     1  UNL1        0.0000
     26 C          24.6991   44.4905   29.4936 C.3     1  UNL1        0.0005
     27 C          18.7113   40.0384   33.1474 C.3     1  UNL1        0.1136
     28 C          19.0662   38.9609   34.1740 C.3     1  UNL1        0.0567
     29 C          20.0748   39.5245   35.1769 C.3     1  UNL1        0.1443
     30 O          20.1566   40.9430   35.0241 O.3     1  UNL1       -0.3510
     31 C          19.2483   41.6702   35.8539 C.3     1  UNL1        0.1741
@<TRIPOS>BOND
     1    25    26    1
     2    26    24    1
     3    24    23    1
     4    23    18    1
     5    18    22   ar
     6    18    19   ar
     7    19    20   ar
     8    20    21   ar
     9    20    16    1
    10    21    22   ar
    11    16    17    1
    12    16    15    1
    13    15     1    1
    14     1    14   ar
    15     1     2   ar
    16     2     3   ar
    17     3     7   ar
    18     3     4   ar
    19     4     5   ar
    20     4    12   ar
    21     5    11    1
    22     5     6   ar
    23     6     7   ar
    24     6     8    1
    25     8     9    1
    26     9    10    1
    27    10    11    1
    28    12    13    2
    29    12    14   ar
    30    14    27    1
    31    27    28    1
    32    28    29    1
    33    29    30    1
    34    30    31    1
@<TRIPOS>MOLECULE
ZINC12859841
 31 33 0 0 0
SMALL
GASTEIGER

@<TRIPOS>ATOM
      1 C          26.3406   36.8295   27.4734 C.ar    1  UNL1        0.1162
      2 C          26.2352   36.8950   28.8736 C.ar    1  UNL1        0.0920
      3 C          26.4649   35.7168   29.6153 C.ar    1  UNL1        0.0148
      4 C          26.7889   34.5376   28.9217 C.ar    1  UNL1       -0.0074
      5 C          26.8763   34.5643   27.5519 C.ar    1  UNL1        0.0556
      6 N          26.6509   35.6909   26.8818 N.ar    1  UNL1       -0.2431
      7 C          27.2271   33.3401   26.7436 C.3     1  UNL1        0.0455
      8 C          27.0262   32.0729   27.5712 C.3     1  UNL1        0.0066
      9 C          27.7648   32.2430   28.9041 C.3     1  UNL1        0.0048
     10 C          27.0238   33.2909   29.7322 C.3     1  UNL1        0.0276
     11 C          26.3677   35.7222   31.0856 C.ar    1  UNL1        0.0299
     12 C          25.3014   35.3908   31.8829 C.ar    1  UNL1        0.0070
     13 C          25.4462   35.4734   33.2480 C.ar    1  UNL1        0.0075
     14 C          26.6363   35.8792   33.7648 C.ar    1  UNL1        0.0354
     15 S          27.6093   36.1544   32.2936 S.2     1  UNL1       -0.0864
     16 C          27.7848   30.9108   29.6563 C.3     1  UNL1        0.0003
     17 C          26.9381   29.8852   28.9000 C.3     1  UNL1        0.0000
     18 C          27.2113   31.1095   31.0607 C.3     1  UNL1        0.0000
     19 C          29.2253   30.4056   29.7604 C.3     1  UNL1        0.0000
     20 C          25.9035   38.1239   29.5295 C.1     1  UNL1        0.1025
     21 N          25.6403   39.0990   30.0498 N.1     1  UNL1       -0.1908
     22 S          26.0566   38.2730   26.5037 S.3     1  UNL1       -0.0863
     23 C          24.3440   37.9793   25.9970 C.3     1  UNL1        0.1284
     24 C          23.4090   38.5939   27.0065 C.2     1  UNL1        0.1731
     25 O          23.2576   39.7915   27.0386 O.2     1  UNL1       -0.2945
     26 C          22.6631   37.7138   27.9761 C.3     1  UNL1        0.1746
     27 C          21.2080   37.6589   27.5876 C.2     1  UNL1        0.3246
     28 O          20.8971   37.5093   26.4296 O.2     1  UNL1       -0.2496
     29 O          20.2574   37.7761   28.5279 O.3     1  UNL1       -0.4482
     30 C          20.1695   38.8035   30.7341 C.3     1  UNL1        0.0513
     31 C          20.1716   39.0477   29.2237 C.3     1  UNL1        0.2086
@<TRIPOS>BOND
     1    30    31    1
     2    31    29    1
     3    29    27    1
     4    27    28    2
     5    27    26    1
     6    26    24    1
     7    24    25    2
     8    24    23    1
     9    23    22    1
    10    22     1    1
    11     1     6   ar
    12     1     2   ar
    13     2     3   ar
    14     2    20    1
    15     3     4   ar
    16     3    11    1
    17     4    10    1
    18     4     5   ar
    19     5     6   ar
    20     5     7    1
    21     7     8    1
    22     8     9    1
    23     9    10    1
    24     9    16    1
    25    16    17    1
    26    16    18    1
    27    16    19    1
    28    11    15   ar
    29    11    12   ar
    30    12    13   ar
    31    13    14   ar
    32    14    15   ar
    33    20    21    3
@<TRIPOS>MOLECULE
ZINC01565234
 34 36 0 0 0
SMALL
GASTEIGER

@<TRIPOS>ATOM
      1 C          23.5804   51.8382   23.4928 C.3     1  UNL1        0.2844
      2 C          22.8528   50.4907   23.5459 C.3     1  UNL1        0.1176
      3 C          22.2655   50.1861   22.1940 C.2     1  UNL1        0.0890
      4 C          22.0935   51.1428   21.2576 C.2     1  UNL1        0.1495
      5 O          22.4479   52.4291   21.4554 O.2     1  UNL1       -0.4327
      6 C          22.6612   52.8559   22.8048 C.3     1  UNL1        0.3902
      7 C          21.4983   50.7645   19.9611 C.ar    1  UNL1        0.0345
      8 C          20.1121   50.7929   19.7903 C.ar    1  UNL1        0.0030
      9 C          19.5625   50.4331   18.5776 C.ar    1  UNL1        0.0001
     10 C          20.3806   50.0438   17.5317 C.ar    1  UNL1        0.0000
     11 C          21.7546   50.0133   17.6937 C.ar    1  UNL1        0.0001
     12 C          22.3181   50.3709   18.9007 C.ar    1  UNL1        0.0030
     13 C          21.8774   48.8411   21.8925 C.1     1  UNL1        0.0996
     14 N          21.5694   47.7742   21.6532 N.1     1  UNL1       -0.1910
     15 C          21.7493   50.5554   24.5703 C.2     1  UNL1       -0.0161
     16 C          21.9456   50.0688   25.7876 C.2     1  UNL1       -0.0041
     17 C          20.8477   50.0876   26.7770 C.ar    1  UNL1       -0.0003
     18 C          19.5708   50.5044   26.3988 C.ar    1  UNL1       -0.0000
     19 C          18.5488   50.5143   27.3259 C.ar    1  UNL1       -0.0000
     20 C          18.7908   50.1235   28.6307 C.ar    1  UNL1       -0.0000
     21 C          20.0557   49.7141   29.0133 C.ar    1  UNL1       -0.0000
     22 C          21.0849   49.6942   28.0946 C.ar    1  UNL1       -0.0000
     23 O          23.8777   52.2775   24.8196 O.3     1  UNL1       -0.3272
     24 C          25.8270   52.3087   26.2479 C.3     1  UNL1        0.0347
     25 C          25.1826   52.8413   24.9665 C.3     1  UNL1        0.1450
     26 O          21.4123   52.9197   23.4963 O.3     1  UNL1       -0.2993
     27 C          21.1214   54.2028   24.0537 C.3     1  UNL1        0.1484
     28 C          20.5620   54.0299   25.4673 C.3     1  UNL1        0.0349
     29 O          23.2803   54.1439   22.8118 O.3     1  UNL1       -0.2993
     30 C          23.5241   54.6786   21.5092 C.3     1  UNL1        0.1484
     31 C          25.0302   54.8531   21.3034 C.3     1  UNL1        0.0349
     32 O          24.7918   51.7022   22.7471 O.3     1  UNL1       -0.3272
     33 C          25.3668   50.3953   22.8057 C.3     1  UNL1        0.1450
     34 C          26.8925   50.5097   22.8228 C.3     1  UNL1        0.0347
@<TRIPOS>BOND
     1    24    25    1
     2    25    23    1
     3    23     1    1
     4     1     6    1
     5     1     2    1
     6     1    32    1
     7     2     3    1
     8     2    15    1
     9     3     4    2
    10     3    13    1
    11     4     5    1
    12     4     7    1
    13     5     6    1
    14     6    26    1
    15     6    29    1
    16    26    27    1
    17    27    28    1
    18    29    30    1
    19    30    31    1
    20     7    12   ar
    21     7     8   ar
    22     8     9   ar
    23     9    10   ar
    24    10    11   ar
    25    11    12   ar
    26    13    14    3
    27    15    16    2
    28    16    17    1
    29    17    22   ar
    30    17    18   ar
    31    18    19   ar
    32    19    20   ar
    33    20    21   ar
    34    21    22   ar
    35    32    33    1
    36    33    34    1
@<TRIPOS>MOLECULE
ZINC26089085
 29 31 0 0 0
SMALL
GASTEIGER

@<TRIPOS>ATOM
      1 C          12.4512   37.2458   28.4143 C.ar    1  UNL1        0.1602
      2 N          11.4923   37.7612   29.1594 N.ar    1  UNL1       -0.1339
      3 N          11.8088   38.4056   30.3329 N.ar    1  UNL1       -0.1339
      4 C          13.0697   38.5048   30.7078 C.ar    1  UNL1        0.1602
      5 S          13.9021   37.6677   29.3672 S.2     1  UNL1       -0.0330
      6 S          12.3331   36.3795   26.8846 S.3     1  UNL1       -0.0818
      7 C          10.8250   37.0390   26.1221 C.3     1  UNL1        0.0929
      8 C          11.1951   37.9188   24.9560 C.2     1  UNL1        0.0250
      9 O          12.3134   38.3662   24.8682 O.2     1  UNL1       -0.3314
     10 C          10.1697   38.2404   23.8994 C.2     1  UNL1       -0.1026
     11 C          11.4744   41.6303   20.4595 C.3     1  UNL1        0.0525
     12 C          11.0076   41.2409   21.8385 C.ar    1  UNL1        0.0629
     13 C          10.7588   42.1856   22.7808 C.ar    1  UNL1        0.0485
     14 S          10.2571   41.1563   24.1529 S.2     1  UNL1       -0.1048
     15 C          10.4250   39.6226   23.3559 C.ar    1  UNL1       -0.0498
     16 N          10.8367   39.9757   22.1602 N.ar    1  UNL1       -0.2804
     17 C           8.8227   38.1865   24.4905 C.1     1  UNL1       -0.1066
     18 N           7.7831   38.1449   24.9467 N.1     1  UNL1       -0.2342
     19 S          13.7512   39.2663   32.1431 S.3     1  UNL1       -0.0818
     20 C          15.0238   40.3800   31.4868 C.3     1  UNL1        0.0904
     21 C          16.3045   40.1890   32.2577 C.ar    1  UNL1       -0.0109
     22 C          17.2111   39.2230   31.8633 C.ar    1  UNL1       -0.0037
     23 C          18.3862   39.0481   32.5701 C.ar    1  UNL1       -0.0046
     24 C          18.6546   39.8394   33.6713 C.ar    1  UNL1       -0.0225
     25 C          17.7473   40.8046   34.0666 C.ar    1  UNL1       -0.0046
     26 C          16.5724   40.9797   33.3595 C.ar    1  UNL1       -0.0037
     27 C          19.9354   39.6485   34.4423 C.3     1  UNL1        0.0224
     28 C          20.2158   40.8962   35.2823 C.3     1  UNL1        0.0047
     29 C          19.8005   38.4338   35.3626 C.3     1  UNL1        0.0047
@<TRIPOS>UNITY_ATOM_ATTR
10 1
charge -1
@<TRIPOS>BOND
     1    11    12    1
     2    12    16   ar
     3    12    13   ar
     4    13    14   ar
     5    14    15   ar
     6    15    16   ar
     7    15    10    1
     8    10    17    1
     9    10     8    1
    10    17    18    3
    11     8     9    2
    12     8     7    1
    13     7     6    1
    14     6     1    1
    15     1     5   ar
    16     1     2   ar
    17     2     3   ar
    18     3     4   ar
    19     4     5   ar
    20     4    19    1
    21    19    20    1
    22    20    21    1
    23    21    26   ar
    24    21    22   ar
    25    22    23   ar
    26    23    24   ar
    27    24    25   ar
    28    24    27    1
    29    25    26   ar
    30    27    28    1
    31    27    29    1
@<TRIPOS>MOLECULE
ZINC02268042
 34 36 0 0 0
SMALL
GASTEIGER

@<TRIPOS>ATOM
      1 C          22.9227   38.5429   29.1738 C.ar    1  UNL1        0.0683
      2 C          24.0310   37.9044   29.7022 C.ar    1  UNL1        0.0465
      3 N          25.2729   38.3505   29.3770 N.ar    1  UNL1       -0.2806
      4 C          25.4496   39.3967   28.5549 C.ar    1  UNL1        0.3340
      5 O          26.5816   39.7559   28.2960 O.2     1  UNL1       -0.2462
      6 N          24.4165   40.0604   28.0088 N.ar    1  UNL1       -0.2445
      7 C          23.1467   39.6849   28.2698 C.ar    1  UNL1        0.2655
      8 O          22.2079   40.2788   27.7736 O.2     1  UNL1       -0.2668
      9 C          23.8626   36.7275   30.6284 C.3     1  UNL1        0.0503
     10 C          20.7421   38.8922   30.2166 C.2     1  UNL1        0.0821
     11 C          21.5669   38.0930   29.4988 C.2     1  UNL1        0.0125
     12 C          19.4004   38.5059   30.4387 C.2     1  UNL1        0.3414
     13 O          18.5727   38.6474   29.5580 O.2     1  UNL1       -0.2449
     14 O          19.0387   37.9747   31.6258 O.3     1  UNL1       -0.4454
     15 C          18.9484   38.8696   32.7363 C.3     1  UNL1        0.2088
     16 C          17.5599   39.5116   32.7622 C.3     1  UNL1        0.0475
     17 C          17.4651   40.4740   33.9478 C.3     1  UNL1        0.0038
     18 C          18.7092   41.3638   33.9834 C.3     1  UNL1        0.0001
     19 C          20.5572   40.4228   35.3767 C.3     1  UNL1        0.0000
     20 C          19.3228   41.3268   35.3843 C.3     1  UNL1        0.0000
     21 C          24.6707   41.1955   27.1181 C.3     1  UNL1        0.1403
     22 C          24.7593   42.4615   27.9306 C.ar    1  UNL1        0.0006
     23 C          25.9818   43.0797   28.1158 C.ar    1  UNL1       -0.0024
     24 C          26.0624   44.2439   28.8570 C.ar    1  UNL1       -0.0003
     25 C          24.9222   44.7839   29.4217 C.ar    1  UNL1       -0.0000
     26 C          23.7005   44.1629   29.2410 C.ar    1  UNL1       -0.0003
     27 C          23.6191   43.0017   28.4953 C.ar    1  UNL1       -0.0024
     28 C          26.4458   37.6739   29.9364 C.3     1  UNL1        0.1369
     29 C          26.6698   36.3732   29.2088 C.ar    1  UNL1        0.0005
     30 C          26.6597   36.3436   27.8269 C.ar    1  UNL1       -0.0024
     31 C          26.8699   35.1514   27.1596 C.ar    1  UNL1       -0.0003
     32 C          27.0799   33.9869   27.8743 C.ar    1  UNL1       -0.0000
     33 C          27.0849   34.0157   29.2564 C.ar    1  UNL1       -0.0003
     34 C          26.8798   35.2088   29.9236 C.ar    1  UNL1       -0.0024
@<TRIPOS>BOND
     1    19    20    1
     2    20    18    1
     3    18    17    1
     4    17    16    1
     5    16    15    1
     6    15    14    1
     7    14    12    1
     8    12    13    2
     9    12    10    1
    10    10    11    2
    11    11     1    1
    12     1     7   ar
    13     1     2   ar
    14     2     3   ar
    15     2     9    1
    16     3     4   ar
    17     3    28    1
    18     4     5    2
    19     4     6   ar
    20     6     7   ar
    21     6    21    1
    22     7     8    2
    23    21    22    1
    24    22    27   ar
    25    22    23   ar
    26    23    24   ar
    27    24    25   ar
    28    25    26   ar
    29    26    27   ar
    30    28    29    1
    31    29    34   ar
    32    29    30   ar
    33    30    31   ar
    34    31    32   ar
    35    32    33   ar
    36    33    34   ar
@<TRIPOS>MOLECULE
ZINC22564448
 29 30 0 0 0
SMALL
GASTEIGER

@<TRIPOS>ATOM
      1 N          23.6378   40.3285   28.0012 N.ar    1  UNL1       -0.2904
      2 C          23.7122   41.7023   27.9876 C.ar    1  UNL1        0.1676
      3 N          22.5344   42.1554   28.3491 N.ar    1  UNL1       -0.1282
      4 N          21.7397   41.1733   28.5845 N.ar    1  UNL1       -0.1221
      5 C          22.3601   40.0325   28.3828 C.ar    1  UNL1        0.1937
      6 C          24.8954   42.5146   27.6335 C.ar    1  UNL1        0.0466
      7 C          25.5328   43.2858   28.6069 C.ar    1  UNL1        0.0048
      8 C          26.6395   44.0376   28.2718 C.ar    1  UNL1        0.0115
      9 C          27.1126   44.0374   26.9701 C.ar    1  UNL1        0.0585
     10 C          26.4824   43.2791   25.9984 C.ar    1  UNL1        0.0229
     11 C          25.3767   42.5181   26.3224 C.ar    1  UNL1        0.0614
     12 CL         24.5865   41.5684   25.1028 Cl      1  UNL1       -0.0821
     13 CL         28.5022   44.9918   26.5554 Cl      1  UNL1       -0.0822
     14 C          24.7048   39.3809   27.6695 C.3     1  UNL1        0.1094
     15 C          26.9300   39.7327   28.7498 C.3     1  UNL1        0.0020
     16 C          25.5459   39.1027   28.9170 C.3     1  UNL1        0.0227
     17 C          25.6928   37.5915   29.1063 C.3     1  UNL1        0.0020
     18 S          21.6726   38.4211   28.5721 S.3     1  UNL1       -0.0637
     19 C          20.0179   38.8530   29.1647 C.3     1  UNL1        0.1743
     20 C          19.9423   38.6268   30.6527 C.2     1  UNL1        0.3290
     21 O          20.8763   38.9276   31.3577 O.2     1  UNL1       -0.2491
     22 O          18.8374   38.0911   31.1948 O.3     1  UNL1       -0.4397
     23 C          18.0827   38.9252   32.1130 C.3     1  UNL1        0.2720
     24 C          16.6758   39.0922   31.5993 C.2     1  UNL1        0.1937
     25 O          16.4080   38.7867   30.4622 O.2     1  UNL1       -0.2922
     26 C          15.6032   39.6407   32.5048 C.3     1  UNL1        0.0553
     27 C          15.6844   41.1684   32.5243 C.3     1  UNL1        0.0075
     28 C          14.2294   39.2096   31.9873 C.3     1  UNL1        0.0075
     29 C          15.8068   39.1009   33.9218 C.3     1  UNL1        0.0075
@<TRIPOS>BOND
     1    15    16    1
     2    16    17    1
     3    16    14    1
     4    14     1    1
     5     1     5   ar
     6     1     2   ar
     7     2     3   ar
     8     2     6    1
     9     3     4   ar
    10     4     5   ar
    11     5    18    1
    12    18    19    1
    13    19    20    1
    14    20    21    2
    15    20    22    1
    16    22    23    1
    17    23    24    1
    18    24    25    2
    19    24    26    1
    20    26    27    1
    21    26    28    1
    22    26    29    1
    23     6    11   ar
    24     6     7   ar
    25     7     8   ar
    26     8     9   ar
    27     9    10   ar
    28     9    13    1
    29    10    11   ar
    30    11    12    1
@<TRIPOS>MOLECULE
ZINC24185724
 31 33 0 0 0
SMALL
GASTEIGER

@<TRIPOS>ATOM
      1 C          13.2052   37.6176   27.2360 C.3     1  UNL1        0.0096
      2 C          11.7304   37.2448   27.3996 C.3     1  UNL1        0.0853
      3 C          10.2915   39.4825   26.4230 C.3     1  UNL1        0.1150
      4 N          10.3888   38.2771   25.5961 N.am    1  UNL1       -0.2740
      5 C          11.0694   37.2043   26.0460 C.2     1  UNL1        0.2258
      6 O          11.1499   36.2064   25.3613 O.2     1  UNL1       -0.2749
      7 C           9.7461   38.2378   24.2801 C.3     1  UNL1        0.1407
      8 C          10.7675   38.6075   23.2026 C.3     1  UNL1        0.2268
      9 O          11.3146   39.8966   23.4871 O.3     1  UNL1       -0.4728
     10 C          11.1366   40.8635   22.5485 C.ar    1  UNL1        0.1491
     11 C          11.7617   40.7576   21.3148 C.ar    1  UNL1        0.0378
     12 C          11.5747   41.7387   20.3603 C.ar    1  UNL1        0.0032
     13 C          10.7744   42.8317   20.6375 C.ar    1  UNL1        0.0011
     14 C          10.1546   42.9433   21.8681 C.ar    1  UNL1        0.0145
     15 C          10.3336   41.9615   22.8250 C.ar    1  UNL1        0.0915
     16 CL          9.5556   42.1020   24.3704 Cl      1  UNL1       -0.0791
     17 C          14.0794   36.5208   27.8474 C.3     1  UNL1        0.0025
     18 C          14.5060   36.9351   29.2571 C.3     1  UNL1        0.0246
     19 C          14.6823   38.4539   29.3110 C.3     1  UNL1        0.1077
     20 N          15.3714   38.8218   30.5503 N.ar    1  UNL1       -0.3103
     21 C          16.7202   38.7695   30.5990 C.ar    1  UNL1        0.2580
     22 O          17.3663   38.4224   29.6292 O.2     1  UNL1       -0.2671
     23 C          17.3886   39.1444   31.8582 C.ar    1  UNL1        0.0340
     24 C          18.7750   39.1169   31.9880 C.ar    1  UNL1        0.0029
     25 C          19.3521   39.4776   33.1876 C.ar    1  UNL1        0.0000
     26 C          18.5614   39.8648   34.2587 C.ar    1  UNL1       -0.0018
     27 C          17.1859   39.8964   34.1429 C.ar    1  UNL1       -0.0238
     28 C          16.5878   39.5376   32.9446 C.ar    1  UNL1       -0.1133
     29 N          15.2099   39.5559   32.7861 N.ar    1  UNL1       -0.6386
     30 C          14.6503   39.2042   31.6158 C.ar    1  UNL1       -0.0162
     31 S          12.9442   39.2453   31.4784 S.2     1  UNL1       -0.0582
@<TRIPOS>UNITY_ATOM_ATTR
29 1
charge -1
@<TRIPOS>BOND
     1     3     4    1
     2     4     7    1
     3     4     5   am
     4     7     8    1
     5     8     9    1
     6     9    10    1
     7    10    15   ar
     8    10    11   ar
     9    11    12   ar
    10    12    13   ar
    11    13    14   ar
    12    14    15   ar
    13    15    16    1
    14     5     6    2
    15     5     2    1
    16     2     1    1
    17     1    17    1
    18    17    18    1
    19    18    19    1
    20    19    20    1
    21    20    30   ar
    22    20    21   ar
    23    21    22    2
    24    21    23   ar
    25    23    28   ar
    26    23    24   ar
    27    24    25   ar
    28    25    26   ar
    29    26    27   ar
    30    27    28   ar
    31    28    29   ar
    32    29    30   ar
    33    30    31    2
@<TRIPOS>MOLECULE
ZINC16846215
 30 33 0 0 0
SMALL
GASTEIGER

@<TRIPOS>ATOM
      1 C          23.3919   38.2201   29.6579 C.ar    1  UNL1        0.1990
      2 N          23.2640   37.9795   30.9421 N.ar    1  UNL1       -0.1217
      3 N          24.1797   37.1647   31.3378 N.ar    1  UNL1       -0.1278
      4 C          24.9462   36.8378   30.3267 C.ar    1  UNL1        0.1738
      5 N          24.4693   37.5007   29.2170 N.ar    1  UNL1       -0.2482
      6 C          25.0799   37.3472   28.0006 C.ar    1  UNL1        0.1782
      7 N          26.1286   36.5704   27.8581 N.ar    1  UNL1       -0.2155
      8 C          26.6549   35.8938   28.8766 C.ar    1  UNL1        0.1151
      9 C          26.1280   35.9617   30.1735 C.ar    1  UNL1        0.0564
     10 C          26.8142   35.1649   31.1874 C.ar    1  UNL1       -0.0152
     11 C          27.8817   34.4432   30.7809 C.ar    1  UNL1        0.0049
     12 S          28.0293   34.7830   29.0477 S.2     1  UNL1       -0.0725
     13 C          28.7473   33.5521   31.6182 C.3     1  UNL1        0.0327
     14 C          28.0241   33.2834   32.9459 C.3     1  UNL1        0.0055
     15 C          27.5149   34.6144   33.5065 C.3     1  UNL1        0.0047
     16 C          26.3635   35.1349   32.6453 C.3     1  UNL1        0.0267
     17 C          27.0237   34.4073   34.9406 C.3     1  UNL1        0.0004
     18 S          22.3674   39.2720   28.6839 S.3     1  UNL1       -0.0633
     19 C          20.8971   39.5295   29.7146 C.3     1  UNL1        0.1743
     20 C          20.0897   38.2580   29.7647 C.2     1  UNL1        0.3286
     21 O          20.0864   37.5068   28.8183 O.2     1  UNL1       -0.2491
     22 O          19.3743   37.9600   30.8606 O.3     1  UNL1       -0.4479
     23 C          18.7892   39.0718   31.5884 C.3     1  UNL1        0.2085
     24 C          19.0703   38.9071   33.0833 C.3     1  UNL1        0.0474
     25 C          20.4177   39.5479   33.4225 C.3     1  UNL1        0.0038
     26 C          19.7016   41.0854   35.2571 C.3     1  UNL1        0.0000
     27 C          20.4903   39.8166   34.9270 C.3     1  UNL1        0.0001
     28 S          24.4461   38.2092   26.6006 S.3     1  UNL1       -0.0769
     29 C          25.7926   39.3860   26.3202 C.3     1  UNL1        0.0651
     30 C          25.9590   40.2743   27.5548 C.3     1  UNL1        0.0130
@<TRIPOS>BOND
     1    26    27    1
     2    27    25    1
     3    25    24    1
     4    24    23    1
     5    23    22    1
     6    22    20    1
     7    20    21    2
     8    20    19    1
     9    19    18    1
    10    18     1    1
    11     1     5   ar
    12     1     2   ar
    13     2     3   ar
    14     3     4   ar
    15     4     9   ar
    16     4     5   ar
    17     5     6   ar
    18     6     7   ar
    19     6    28    1
    20     7     8   ar
    21     8    12   ar
    22     8     9   ar
    23     9    10   ar
    24    10    16    1
    25    10    11   ar
    26    11    12   ar
    27    11    13    1
    28    13    14    1
    29    14    15    1
    30    15    16    1
    31    15    17    1
    32    28    29    1
    33    29    30    1
@<TRIPOS>MOLECULE
ZINC21860113
 31 32 0 0 0
SMALL
GASTEIGER

@<TRIPOS>ATOM
      1 N          24.5156   40.7951   25.8396 N.ar    1  UNL1       -0.2807
      2 C          25.0465   41.7589   26.6630 C.ar    1  UNL1        0.0961
      3 C          24.8162   41.9604   28.0140 C.2     1  UNL1        0.0614
      4 S          26.1050   42.6883   25.5658 S.2     1  UNL1       -0.0648
      5 C          25.7938   41.7573   24.0725 C.ar    1  UNL1        0.0869
      6 C          26.2979   41.9373   22.8219 C.2     1  UNL1        0.0118
      7 C          24.8404   40.7476   24.5587 C.ar    1  UNL1        0.2676
      8 O          24.3738   39.9034   23.8154 O.2     1  UNL1       -0.2664
      9 C          26.0288   40.9484   21.7739 C.ar    1  UNL1        0.0076
     10 C          24.9070   41.0856   20.8773 C.ar    1  UNL1        0.0075
     11 C          24.7441   40.1245   19.9475 C.ar    1  UNL1        0.0355
     12 S          26.1023   39.0173   20.2661 S.2     1  UNL1       -0.0859
     13 C          26.8419   39.8442   21.5956 C.ar    1  UNL1        0.0355
     14 C          25.4526   42.9996   28.6792 C.2     1  UNL1        0.1743
     15 O          26.6088   42.8744   29.0389 O.2     1  UNL1       -0.2913
     16 C          24.7120   44.2826   28.9561 C.3     1  UNL1        0.0556
     17 C          25.0891   44.7993   30.3458 C.3     1  UNL1        0.0077
     18 C          25.0899   45.3269   27.9037 C.3     1  UNL1        0.0077
     19 C          23.2051   44.0239   28.8996 C.3     1  UNL1        0.0077
     20 C          23.5745   39.8140   26.3855 C.3     1  UNL1        0.1946
     21 N          23.9161   38.2842   28.2990 N.am    1  UNL1       -0.2780
     22 C          24.3383   38.7281   27.0985 C.2     1  UNL1        0.2488
     23 O          25.3330   38.2536   26.5922 O.2     1  UNL1       -0.2728
     24 C          22.7663   38.9162   28.9506 C.3     1  UNL1        0.0934
     25 C          20.6657   38.4630   30.2251 C.3     1  UNL1        0.0018
     26 C          21.7441   37.8442   29.3335 C.3     1  UNL1        0.0199
     27 C          21.0971   37.2808   28.0667 C.3     1  UNL1        0.0018
     28 C          24.6069   37.1696   28.9522 C.3     1  UNL1        0.0934
     29 C          25.2210   37.6510   30.2682 C.3     1  UNL1        0.0199
     30 C          24.6012   36.8772   31.4335 C.3     1  UNL1        0.0018
     31 C          26.7320   37.4121   30.2435 C.3     1  UNL1        0.0018
@<TRIPOS>BOND
     1    25    26    1
     2    26    27    1
     3    26    24    1
     4    24    21    1
     5    21    28    1
     6    21    22   am
     7    28    29    1
     8    29    30    1
     9    29    31    1
    10    22    23    2
    11    22    20    1
    12    20     1    1
    13     1     7   ar
    14     1     2   ar
    15     2     3    2
    16     2     4   ar
    17     3    14    1
    18    14    15    2
    19    14    16    1
    20    16    17    1
    21    16    18    1
    22    16    19    1
    23     4     5   ar
    24     5     6    2
    25     5     7   ar
    26     6     9    1
    27     9    13   ar
    28     9    10   ar
    29    10    11   ar
    30    11    12   ar
    31    12    13   ar
    32     7     8    2
@<TRIPOS>MOLECULE
ZINC11925866
 32 34 0 0 0
SMALL
GASTEIGER

@<TRIPOS>ATOM
      1 S          25.8373   39.5554   28.5469 S.O2    1  UNL1        0.0678
      2 O          26.1513   40.3515   29.6814 O.2     1  UNL1       -0.1526
      3 O          26.7266   38.5713   28.0372 O.2     1  UNL1       -0.1526
      4 C          25.2849   40.2588   25.8885 C.3     1  UNL1        0.1114
      5 C          25.0289   41.6132   25.1914 C.3     1  UNL1        0.1613
      6 O          24.6165   42.4813   26.2729 O.3     1  UNL1       -0.3417
      7 C          25.4483   42.0760   27.3813 C.3     1  UNL1        0.1586
      8 N          25.5289   40.6044   27.3032 N.3     1  UNL1       -0.1330
      9 C          26.8437   42.6894   27.2488 C.3     1  UNL1        0.0484
     10 C          27.1943   40.5183   24.2981 C.3     1  UNL1        0.0016
     11 C          26.5130   39.5715   25.2882 C.3     1  UNL1        0.0204
     12 C          24.8087   42.5007   28.7047 C.3     1  UNL1        0.0445
     13 C          23.6683   43.4826   28.4282 C.3     1  UNL1        0.0039
     14 C          24.0243   44.8536   29.0067 C.3     1  UNL1        0.0001
     15 C          25.0958   44.6890   30.0863 C.3     1  UNL1        0.0000
     16 C          24.5584   45.7546   27.8913 C.3     1  UNL1        0.0000
     17 C          24.3268   38.7265   28.9160 C.ar    1  UNL1        0.1560
     18 C          23.0856   39.1446   28.5760 C.ar    1  UNL1        0.1165
     19 N          22.2036   38.2348   29.0401 N.ar    1  UNL1       -0.2439
     20 N          22.9271   37.2213   29.6818 N.ar    1  UNL1       -0.1720
     21 C          24.1990   37.5199   29.6118 C.ar    1  UNL1        0.0979
     22 C          25.3312   36.7017   30.1772 C.3     1  UNL1        0.0385
     23 C          26.2576   37.6072   30.9915 C.3     1  UNL1        0.0060
     24 C          26.1198   36.0623   29.0326 C.3     1  UNL1        0.0060
     25 C          24.7656   35.6051   31.0819 C.3     1  UNL1        0.0060
     26 C          20.7471   38.2936   28.8936 C.3     1  UNL1        0.1539
     27 C          20.1243   38.6695   30.2134 C.ar    1  UNL1        0.0021
     28 C          20.9094   39.1906   31.2247 C.ar    1  UNL1       -0.0023
     29 C          20.3372   39.5403   32.4336 C.ar    1  UNL1       -0.0003
     30 C          18.9817   39.3585   32.6348 C.ar    1  UNL1       -0.0000
     31 C          18.1975   38.8320   31.6255 C.ar    1  UNL1       -0.0003
     32 C          18.7688   38.4876   30.4147 C.ar    1  UNL1       -0.0023
@<TRIPOS>BOND
     1    10    11    1
     2    11     4    1
     3     4     8    1
     4     4     5    1
     5     5     6    1
     6     6     7    1
     7     7     8    1
     8     7     9    1
     9     7    12    1
    10     8     1    1
    11     1     2    2
    12     1     3    2
    13     1    17    1
    14    17    21   ar
    15    17    18   ar
    16    18    19   ar
    17    19    20   ar
    18    19    26    1
    19    20    21   ar
    20    21    22    1
    21    22    23    1
    22    22    24    1
    23    22    25    1
    24    26    27    1
    25    27    32   ar
    26    27    28   ar
    27    28    29   ar
    28    29    30   ar
    29    30    31   ar
    30    31    32   ar
    31    12    13    1
    32    13    14    1
    33    14    15    1
    34    14    16    1
@<TRIPOS>MOLECULE
ZINC21766224
 33 35 0 0 0
SMALL
GASTEIGER

@<TRIPOS>ATOM
      1 C          20.7319   38.1240   28.8751 C.2     1  UNL1        0.0113
      2 C          21.6599   38.9091   28.2711 C.ar    1  UNL1        0.0869
      3 C          22.1625   40.2410   28.6650 C.ar    1  UNL1        0.2672
      4 O          21.7596   40.8194   29.6571 O.2     1  UNL1       -0.2664
      5 N          23.0801   40.7642   27.8668 N.ar    1  UNL1       -0.2891
      6 C          23.5113   40.0887   26.7591 C.ar    1  UNL1        0.1056
      7 C          24.4664   40.4964   25.8194 C.2     1  UNL1        0.1292
      8 S          22.5986   38.6145   26.7807 S.2     1  UNL1       -0.0641
      9 C          19.2094   39.1912   32.6858 C.ar    1  UNL1       -0.0222
     10 C          20.5749   39.0554   32.5036 C.ar    1  UNL1       -0.0043
     11 C          21.0781   38.7088   31.2678 C.ar    1  UNL1       -0.0003
     12 C          20.2041   38.4939   30.1959 C.ar    1  UNL1        0.0006
     13 C          18.8253   38.6390   30.3873 C.ar    1  UNL1       -0.0003
     14 C          18.3382   38.9806   31.6309 C.ar    1  UNL1       -0.0043
     15 C          19.8260   39.9637   34.9600 C.3     1  UNL1        0.0050
     16 C          18.6683   39.5710   34.0401 C.3     1  UNL1        0.0264
     17 C          25.0265   41.8123   25.8926 C.1     1  UNL1        0.1057
     18 N          25.4708   42.8561   25.9506 N.1     1  UNL1       -0.1907
     19 C          24.8784   39.6070   24.7966 C.2     1  UNL1        0.2067
     20 O          25.4929   38.5943   25.0809 O.2     1  UNL1       -0.2858
     21 C          24.5570   39.9049   23.3834 C.ar    1  UNL1        0.0358
     22 C          23.2422   39.8009   22.9266 C.ar    1  UNL1        0.0029
     23 C          22.9483   40.0856   21.6094 C.ar    1  UNL1        0.0001
     24 C          23.9556   40.4626   20.7385 C.ar    1  UNL1       -0.0003
     25 C          25.2617   40.5622   21.1835 C.ar    1  UNL1       -0.0042
     26 C          25.5680   40.2857   22.5002 C.ar    1  UNL1       -0.0187
     27 C          26.9914   40.3941   22.9832 C.3     1  UNL1        0.0311
     28 C          23.6397   42.0829   28.1737 C.3     1  UNL1        0.1121
     29 C          22.5354   43.1383   28.0868 C.3     1  UNL1        0.0566
     30 C          23.0230   44.4403   28.7258 C.3     1  UNL1        0.1442
     31 O          23.8032   45.1726   27.7787 O.3     1  UNL1       -0.3537
     32 C          25.0869   45.5689   28.2656 C.3     1  UNL1        0.1422
     33 C          25.2767   45.0432   29.6899 C.3     1  UNL1        0.0346
@<TRIPOS>BOND
     1    15    16    1
     2    16     9    1
     3     9    14   ar
     4     9    10   ar
     5    10    11   ar
     6    11    12   ar
     7    12    13   ar
     8    12     1    1
     9    13    14   ar
    10     1     2    2
    11     2     8   ar
    12     2     3   ar
    13     3     4    2
    14     3     5   ar
    15     5     6   ar
    16     5    28    1
    17     6     7    2
    18     6     8   ar
    19     7    17    1
    20     7    19    1
    21    17    18    3
    22    19    20    2
    23    19    21    1
    24    21    26   ar
    25    21    22   ar
    26    22    23   ar
    27    23    24   ar
    28    24    25   ar
    29    25    26   ar
    30    26    27    1
    31    28    29    1
    32    29    30    1
    33    30    31    1
    34    31    32    1
    35    32    33    1
@<TRIPOS>MOLECULE
ZINC23425463
 32 34 0 0 0
SMALL
GASTEIGER

@<TRIPOS>ATOM
      1 N          17.0451   39.1583   32.0839 N.ar    1  UNL1       -0.3064
      2 C          15.7928   38.9116   31.5546 C.ar    1  UNL1        0.0792
      3 C          14.5011   39.0215   32.0544 C.ar    1  UNL1        0.0190
      4 C          13.4318   38.6949   31.2709 C.ar    1  UNL1        0.0080
      5 C          13.6250   38.2463   29.9578 C.ar    1  UNL1        0.0772
      6 C          14.9126   38.1388   29.4374 C.ar    1  UNL1        0.0271
      7 C          16.0057   38.4665   30.2371 C.ar    1  UNL1        0.0994
      8 N          17.3495   38.4537   30.0312 N.ar    1  UNL1       -0.2211
      9 C          17.9626   38.8598   31.1154 C.ar    1  UNL1        0.1716
     10 C          12.4614   37.8964   29.1209 C.2     1  UNL1        0.3413
     11 O          11.3398   37.9581   29.5837 O.2     1  UNL1       -0.2449
     12 O          12.6428   37.5087   27.8432 O.3     1  UNL1       -0.4454
     13 C          11.5574   37.7700   26.9147 C.3     1  UNL1        0.2089
     14 C          11.0122   36.4437   26.3814 C.3     1  UNL1        0.0513
     15 C          17.3361   39.6438   33.4351 C.3     1  UNL1        0.1106
     16 C          17.3107   41.1735   33.4439 C.3     1  UNL1        0.0566
     17 C          18.2932   41.6939   34.4951 C.3     1  UNL1        0.1442
     18 O          19.6203   41.2966   34.1448 O.3     1  UNL1       -0.3537
     19 C          20.2205   39.2793   35.3326 C.3     1  UNL1        0.0346
     20 C          20.3867   40.7976   35.2429 C.3     1  UNL1        0.1422
     21 S          19.7095   39.0006   31.2981 S.3     1  UNL1       -0.0725
     22 C          20.2528   38.1205   29.8127 C.3     1  UNL1        0.0913
     23 C          21.6398   38.5754   29.4384 C.ar    1  UNL1       -0.0107
     24 C          22.7217   37.7391   29.6517 C.ar    1  UNL1       -0.0034
     25 C          23.9984   38.1487   29.3110 C.ar    1  UNL1       -0.0001
     26 C          24.2013   39.3953   28.7558 C.ar    1  UNL1        0.0064
     27 C          23.1144   40.2440   28.5380 C.ar    1  UNL1        0.0754
     28 C          21.8277   39.8220   28.8790 C.ar    1  UNL1        0.0030
     29 C          23.3238   41.5801   27.9434 C.2     1  UNL1        0.3413
     30 O          24.2347   41.7604   27.1605 O.2     1  UNL1       -0.2449
     31 O          22.5044   42.5985   28.2696 O.3     1  UNL1       -0.4413
     32 C          23.0895   43.7059   29.0043 C.3     1  UNL1        0.2560
@<TRIPOS>BOND
     1    19    20    1
     2    20    18    1
     3    18    17    1
     4    17    16    1
     5    16    15    1
     6    15     1    1
     7     1     9   ar
     8     1     2   ar
     9     2     7   ar
    10     2     3   ar
    11     3     4   ar
    12     4     5   ar
    13     5     6   ar
    14     5    10    1
    15     6     7   ar
    16     7     8   ar
    17     8     9   ar
    18     9    21    1
    19    21    22    1
    20    22    23    1
    21    23    28   ar
    22    23    24   ar
    23    24    25   ar
    24    25    26   ar
    25    26    27   ar
    26    27    28   ar
    27    27    29    1
    28    29    30    2
    29    29    31    1
    30    31    32    1
    31    10    11    2
    32    10    12    1
    33    12    13    1
    34    13    14    1
@<TRIPOS>MOLECULE
ZINC29497706
 32 35 0 0 0
SMALL
GASTEIGER

@<TRIPOS>ATOM
      1 C          22.7875   38.8611   27.5153 C.ar    1  UNL1        0.1936
      2 N          22.6151   37.7667   26.8088 N.ar    1  UNL1       -0.1221
      3 N          23.1558   37.8991   25.6506 N.ar    1  UNL1       -0.1282
      4 C          23.7023   39.0880   25.5442 C.ar    1  UNL1        0.1668
      5 N          23.4879   39.7389   26.7372 N.ar    1  UNL1       -0.2923
      6 C          23.9157   41.0934   27.0960 C.3     1  UNL1        0.0888
      7 C          25.2610   41.0278   27.8217 C.3     1  UNL1        0.0227
      8 C          25.7078   42.4423   28.1964 C.3     1  UNL1        0.0019
      9 C          24.6636   43.0807   29.1145 C.3     1  UNL1        0.0001
     10 C          23.3183   43.1463   28.3888 C.3     1  UNL1        0.0019
     11 C          22.8714   41.7317   28.0142 C.3     1  UNL1        0.0227
     12 C          24.4161   39.6247   24.3664 C.ar    1  UNL1        0.0392
     13 C          25.8109   39.6775   24.3580 C.ar    1  UNL1        0.0064
     14 C          26.4758   40.1746   23.2563 C.ar    1  UNL1        0.0401
     15 C          25.7610   40.6315   22.1590 C.ar    1  UNL1        0.1724
     16 C          24.3690   40.5865   22.1630 C.ar    1  UNL1        0.1725
     17 C          23.6966   40.0849   23.2623 C.ar    1  UNL1        0.0431
     18 O          23.6710   41.0353   21.0854 O.3     1  UNL1       -0.4684
     19 C          22.3910   41.6180   21.3384 C.3     1  UNL1        0.2526
     20 O          26.4208   41.1250   21.0774 O.3     1  UNL1       -0.4684
     21 C          27.7324   41.6466   21.2999 C.3     1  UNL1        0.2526
     22 S          22.2217   39.1435   29.1599 S.3     1  UNL1       -0.0656
     23 C          20.8706   37.9417   29.2382 C.3     1  UNL1        0.1528
     24 C          18.9750   39.0566   32.0759 C.ar    1  UNL1        0.1805
     25 N          20.1619   38.7970   31.4988 N.ar    1  UNL1       -0.1941
     26 C          19.8811   38.3662   30.2926 C.ar    1  UNL1        0.2477
     27 O          18.5495   38.3702   30.1788 O.2     1  UNL1       -0.3364
     28 N          18.0500   38.7685   31.2100 N.ar    1  UNL1       -0.0606
     29 C          18.7577   39.5801   33.4722 C.3     1  UNL1        0.0692
     30 C          19.8162   38.9923   34.4078 C.3     1  UNL1        0.0081
     31 C          19.4566   41.2993   35.2969 C.3     1  UNL1        0.0000
     32 C          20.4174   40.1091   35.2634 C.3     1  UNL1        0.0005
@<TRIPOS>BOND
     1    31    32    1
     2    32    30    1
     3    30    29    1
     4    29    24    1
     5    24    28   ar
     6    24    25   ar
     7    25    26   ar
     8    26    27   ar
     9    26    23    1
    10    27    28   ar
    11    23    22    1
    12    22     1    1
    13     1     5   ar
    14     1     2   ar
    15     2     3   ar
    16     3     4   ar
    17     4     5   ar
    18     4    12    1
    19     5     6    1
    20     6    11    1
    21     6     7    1
    22     7     8    1
    23     8     9    1
    24     9    10    1
    25    10    11    1
    26    12    17   ar
    27    12    13   ar
    28    13    14   ar
    29    14    15   ar
    30    15    16   ar
    31    15    20    1
    32    16    17   ar
    33    16    18    1
    34    18    19    1
    35    20    21    1
@<TRIPOS>MOLECULE
ZINC08440428
 31 33 0 0 0
SMALL
GASTEIGER

@<TRIPOS>ATOM
      1 N          22.5562   38.3508   29.4858 N.ar    1  UNL1       -0.3071
      2 C          22.9720   39.0378   28.3777 C.ar    1  UNL1        0.0680
      3 C          22.3124   40.1511   27.9969 C.ar    1  UNL1        0.0555
      4 S          21.0293   40.2674   29.2331 S.2     1  UNL1       -0.0484
      5 C          21.4689   38.8207   30.1836 C.ar    1  UNL1        0.1754
      6 N          20.8973   38.3293   31.2668 N.2     1  UNL1       -0.2223
      7 C          19.7505   38.8947   31.7510 C.ar    1  UNL1        0.0834
      8 C          19.8109   39.8184   32.7978 C.ar    1  UNL1        0.0192
      9 C          18.6504   40.3890   33.2772 C.ar    1  UNL1        0.0015
     10 C          17.4273   40.0403   32.7318 C.ar    1  UNL1        0.0001
     11 C          17.3592   39.1219   31.6987 C.ar    1  UNL1        0.0015
     12 C          18.5119   38.5474   31.2053 C.ar    1  UNL1        0.0192
     13 C          24.1381   38.5625   27.6024 C.ar    1  UNL1        0.0164
     14 C          25.4251   38.9789   27.9460 C.ar    1  UNL1        0.0028
     15 C          26.5091   38.5275   27.2219 C.ar    1  UNL1        0.0200
     16 C          26.3216   37.6731   26.1498 C.ar    1  UNL1        0.1222
     17 C          25.0479   37.2607   25.8007 C.ar    1  UNL1        0.0200
     18 C          23.9558   37.7000   26.5202 C.ar    1  UNL1        0.0028
     19 S          27.7109   37.1072   25.2256 S.O2    1  UNL1        0.0633
     20 O          27.5045   37.5276   23.8839 O.2     1  UNL1       -0.1528
     21 O          28.8673   37.4688   25.9680 O.2     1  UNL1       -0.1528
     22 N          27.6522   35.4522   25.2173 N.3     1  UNL1       -0.1555
     23 C          28.1834   34.6946   26.3530 C.3     1  UNL1        0.0958
     24 C          27.0575   34.4144   27.3504 C.3     1  UNL1        0.0206
     25 C          27.0690   34.7457   24.0739 C.3     1  UNL1        0.0958
     26 C          27.8395   33.4466   23.8302 C.3     1  UNL1        0.0206
     27 C          23.2555   37.1387   29.9196 C.3     1  UNL1        0.1080
     28 C          24.2285   37.4873   31.0477 C.3     1  UNL1        0.0245
     29 C          25.4622   36.5872   30.9535 C.3     1  UNL1        0.0020
     30 C          25.2723   35.3589   33.1209 C.3     1  UNL1        0.0000
     31 C          25.1571   35.2346   31.6003 C.3     1  UNL1        0.0001
@<TRIPOS>BOND
     1    30    31    1
     2    31    29    1
     3    29    28    1
     4    28    27    1
     5    27     1    1
     6     1     5   ar
     7     1     2   ar
     8     2     3   ar
     9     2    13    1
    10     3     4   ar
    11     4     5   ar
    12     5     6    2
    13     6     7    1
    14     7    12   ar
    15     7     8   ar
    16     8     9   ar
    17     9    10   ar
    18    10    11   ar
    19    11    12   ar
    20    13    18   ar
    21    13    14   ar
    22    14    15   ar
    23    15    16   ar
    24    16    17   ar
    25    16    19    1
    26    17    18   ar
    27    19    20    2
    28    19    21    2
    29    19    22    1
    30    22    23    1
    31    22    25    1
    32    23    24    1
    33    25    26    1
@<TRIPOS>MOLECULE
ZINC21660927
 31 34 0 0 0
SMALL
GASTEIGER

@<TRIPOS>ATOM
      1 C          25.6075   41.1667   27.7932 C.ar    1  UNL1        0.1746
      2 N          26.0608   39.9903   28.1761 N.ar    1  UNL1       -0.2157
      3 C          25.2596   39.1089   28.7635 C.ar    1  UNL1        0.1175
      4 C          23.9019   39.3812   29.0047 C.ar    1  UNL1        0.0835
      5 C          23.1630   38.3044   29.6591 C.ar    1  UNL1        0.0476
      6 C          23.8209   37.1613   29.9740 C.ar    1  UNL1        0.0401
      7 S          25.4816   37.4695   29.4049 S.2     1  UNL1       -0.0672
      8 C          23.4385   40.6638   28.5797 C.ar    1  UNL1        0.2646
      9 O          22.2738   40.9845   28.7438 O.2     1  UNL1       -0.2668
     10 N          24.3018   41.5114   27.9909 N.ar    1  UNL1       -0.2714
     11 C          21.7277   38.4574   29.9712 C.ar    1  UNL1        0.1462
     12 C          20.6926   38.0614   29.1826 C.ar    1  UNL1        0.0407
     13 C          19.5075   38.3980   29.8687 C.ar    1  UNL1        0.0438
     14 C          19.8735   38.9842   31.0245 C.ar    1  UNL1        0.1796
     15 O          21.2161   39.0186   31.0835 O.2     1  UNL1       -0.4504
     16 S          26.7009   42.3096   27.0166 S.3     1  UNL1       -0.0688
     17 C          27.0019   41.4451   25.4552 C.3     1  UNL1        0.1310
     18 C          28.3472   41.8893   24.8774 C.3     1  UNL1        0.0218
     19 N          25.0191   40.8244   24.1129 N.am    1  UNL1       -0.2789
     20 C          25.9025   41.7743   24.4786 C.2     1  UNL1        0.2357
     21 O          25.8125   42.8942   24.0217 O.2     1  UNL1       -0.2739
     22 C          25.1277   39.4717   24.6648 C.3     1  UNL1        0.0934
     23 C          23.8746   37.6094   25.7620 C.3     1  UNL1        0.0018
     24 C          23.7595   39.0191   25.1788 C.3     1  UNL1        0.0215
     25 C          23.9502   41.1445   23.1636 C.3     1  UNL1        0.0934
     26 C          24.2798   40.5342   21.7998 C.3     1  UNL1        0.0199
     27 C          25.0541   41.4023   20.8060 C.3     1  UNL1        0.0018
     28 C          23.5691   41.1149   20.5756 C.3     1  UNL1        0.0018
     29 C          23.8314   42.8280   27.5531 C.3     1  UNL1        0.1374
     30 C          23.5708   43.6944   28.7582 C.2     1  UNL1       -0.0016
     31 C          24.5241   44.4548   29.2367 C.2     1  UNL1       -0.0029
@<TRIPOS>BOND
     1    23    24    1
     2    24    22    1
     3    22    19    1
     4    19    25    1
     5    19    20   am
     6    25    26    1
     7    26    28    1
     8    26    27    1
     9    27    28    1
    10    20    21    2
    11    20    17    1
    12    17    18    1
    13    17    16    1
    14    16     1    1
    15     1    10   ar
    16     1     2   ar
    17     2     3   ar
    18     3     7   ar
    19     3     4   ar
    20     4     5   ar
    21     4     8   ar
    22     5     6   ar
    23     5    11    1
    24     6     7   ar
    25    11    15   ar
    26    11    12   ar
    27    12    13   ar
    28    13    14   ar
    29    14    15   ar
    30     8     9    2
    31     8    10   ar
    32    10    29    1
    33    29    30    1
    34    30    31    2
@<TRIPOS>MOLECULE
ZINC15776164
 33 36 0 0 0
SMALL
GASTEIGER

@<TRIPOS>ATOM
      1 C          22.8415   37.5493   29.1565 C.3     1  UNL1        0.1108
      2 C          24.1642   37.2945   29.8823 C.3     1  UNL1        0.2273
      3 N          25.2153   38.1236   29.2872 N.ar    1  UNL1       -0.2064
      4 C          25.6391   38.1012   27.9797 C.ar    1  UNL1        0.1013
      5 C          25.2723   37.3664   26.8572 C.ar    1  UNL1        0.0205
      6 C          25.9039   37.5861   25.6654 C.ar    1  UNL1        0.0016
      7 C          26.9105   38.5378   25.5638 C.ar    1  UNL1        0.0017
      8 C          27.2888   39.2716   26.6498 C.ar    1  UNL1        0.0225
      9 C          26.6570   39.0658   27.8836 C.ar    1  UNL1        0.1218
     10 N          26.8095   39.6227   29.1016 N.ar    1  UNL1       -0.1287
     11 N          25.9830   39.1008   29.9381 N.ar    1  UNL1       -0.0618
     12 O          24.0207   37.6270   31.2647 O.3     1  UNL1       -0.3343
     13 C          24.3182   36.5499   32.1554 C.3     1  UNL1        0.1442
     14 C          25.7156   36.0069   31.8501 C.3     1  UNL1        0.0297
     15 C          25.6244   34.5125   31.5348 C.3     1  UNL1        0.0026
     16 C          26.3493   35.1236   34.0997 C.3     1  UNL1        0.0001
     17 C          26.6212   36.2174   33.0651 C.3     1  UNL1        0.0025
     18 C          22.2824   38.9096   29.5778 C.3     1  UNL1        0.2273
     19 N          20.8725   38.7645   29.9484 N.ar    1  UNL1       -0.2064
     20 C          20.3138   39.0263   31.1768 C.ar    1  UNL1        0.1013
     21 C          20.8188   39.4762   32.3921 C.ar    1  UNL1        0.0205
     22 C          19.9791   39.6393   33.4581 C.ar    1  UNL1        0.0016
     23 C          18.6237   39.3601   33.3393 C.ar    1  UNL1        0.0017
     24 C          18.1023   38.9248   32.1562 C.ar    1  UNL1        0.0225
     25 C          18.9426   38.7446   31.0492 C.ar    1  UNL1        0.1218
     26 N          18.7267   38.3251   29.7866 N.ar    1  UNL1       -0.1287
     27 N          19.8279   38.3254   29.1214 N.ar    1  UNL1       -0.0618
     28 O          22.3966   39.8292   28.4899 O.3     1  UNL1       -0.3343
     29 C          21.8002   41.1033   28.7408 C.3     1  UNL1        0.1442
     30 C          22.6788   42.2042   28.1433 C.3     1  UNL1        0.0297
     31 C          22.5629   43.4687   28.9969 C.3     1  UNL1        0.0026
     32 C          24.1356   41.7372   28.1187 C.3     1  UNL1        0.0025
     33 C          25.0364   42.8481   28.6619 C.3     1  UNL1        0.0001
@<TRIPOS>BOND
     1    16    17    1
     2    17    14    1
     3    14    15    1
     4    14    13    1
     5    13    12    1
     6    12     2    1
     7     2     1    1
     8     2     3    1
     9     1    18    1
    10    18    19    1
    11    18    28    1
    12    19    27   ar
    13    19    20   ar
    14    20    25   ar
    15    20    21   ar
    16    21    22   ar
    17    22    23   ar
    18    23    24   ar
    19    24    25   ar
    20    25    26   ar
    21    26    27   ar
    22    28    29    1
    23    29    30    1
    24    30    31    1
    25    30    32    1
    26    32    33    1
    27     3    11   ar
    28     3     4   ar
    29     4     9   ar
    30     4     5   ar
    31     5     6   ar
    32     6     7   ar
    33     7     8   ar
    34     8     9   ar
    35     9    10   ar
    36    10    11   ar
@<TRIPOS>MOLECULE
ZINC22662944
 33 34 0 0 0
SMALL
GASTEIGER

@<TRIPOS>ATOM
      1 C          23.2411   39.6918   28.7328 C.ar    1  UNL1        0.0824
      2 C          23.0921   38.5963   29.5763 C.ar    1  UNL1        0.0193
      3 C          21.8598   38.3051   30.1185 C.ar    1  UNL1        0.0061
      4 C          20.7567   39.1054   29.8115 C.ar    1  UNL1        0.0537
      5 C          20.9089   40.2020   28.9596 C.ar    1  UNL1        0.0061
      6 C          22.1452   40.4905   28.4251 C.ar    1  UNL1        0.0193
      7 C          25.1189   39.2551   27.2282 C.ar    1  UNL1        0.0619
      8 C          26.2985   39.8641   26.9668 C.ar    1  UNL1        0.0422
      9 C          26.3446   40.9880   27.8271 C.ar    1  UNL1        0.1777
     10 N          25.2242   40.9905   28.5224 N.ar    1  UNL1       -0.1588
     11 N          24.4945   39.9874   28.1882 N.ar    1  UNL1       -0.2335
     12 C          24.5931   38.0040   26.5731 C.3     1  UNL1        0.0404
     13 C          25.7450   37.2614   25.8932 C.3     1  UNL1        0.0063
     14 C          22.2116   37.7073   25.8782 C.3     1  UNL1        0.0004
     15 C          23.5407   38.3793   25.5279 C.3     1  UNL1        0.0059
     16 C          27.4381   41.9743   27.9230 C.2     1  UNL1        0.3609
     17 O          28.4595   41.8127   27.2853 O.2     1  UNL1       -0.2431
     18 O          27.3037   43.0539   28.7178 O.3     1  UNL1       -0.4444
     19 C          26.5677   44.1828   28.1773 C.3     1  UNL1        0.2089
     20 C          25.4532   44.5773   29.1485 C.3     1  UNL1        0.0513
     21 C          19.4326   38.7926   30.3860 C.2     1  UNL1        0.2490
     22 O          18.6347   38.1318   29.7498 O.2     1  UNL1       -0.2699
     23 N          19.1086   39.2398   31.6154 N.am    1  UNL1       -0.2761
     24 C          17.8500   38.8228   32.2385 C.3     1  UNL1        0.0937
     25 C          16.7003   39.6617   31.6768 C.3     1  UNL1        0.0215
     26 C          15.8054   40.1337   32.8245 C.3     1  UNL1        0.0017
     27 C          16.1706   39.3743   34.1015 C.3     1  UNL1        0.0001
     28 C          16.0098   41.6335   33.0469 C.3     1  UNL1        0.0001
     29 C          20.0152   40.1429   32.3288 C.3     1  UNL1        0.0937
     30 C          20.7916   39.3554   33.3862 C.3     1  UNL1        0.0215
     31 C          20.4194   39.8677   34.7790 C.3     1  UNL1        0.0017
     32 C          19.5798   41.1399   34.6469 C.3     1  UNL1        0.0001
     33 C          19.6119   38.7981   35.5170 C.3     1  UNL1        0.0001
@<TRIPOS>BOND
     1    14    15    1
     2    15    12    1
     3    12    13    1
     4    12     7    1
     5     7    11   ar
     6     7     8   ar
     7     8     9   ar
     8     9    10   ar
     9     9    16    1
    10    10    11   ar
    11    11     1    1
    12     1     6   ar
    13     1     2   ar
    14     2     3   ar
    15     3     4   ar
    16     4     5   ar
    17     4    21    1
    18     5     6   ar
    19    21    22    2
    20    21    23   am
    21    23    24    1
    22    23    29    1
    23    24    25    1
    24    25    26    1
    25    26    27    1
    26    26    28    1
    27    29    30    1
    28    30    31    1
    29    31    32    1
    30    31    33    1
    31    16    17    2
    32    16    18    1
    33    18    19    1
    34    19    20    1
@<TRIPOS>MOLECULE
ZINC24734519
 34 36 0 0 0
SMALL
GASTEIGER

@<TRIPOS>ATOM
      1 C          13.4952   37.5403   28.4745 C.2     1  UNL1        0.3515
      2 O          14.2054   37.1302   27.5766 O.2     1  UNL1       -0.2441
      3 C          15.4515   38.4054   29.7059 C.2     1  UNL1        0.0180
      4 C          14.0981   38.1282   29.6767 C.2     1  UNL1        0.1439
      5 C          15.9795   41.4503   33.7016 C.3     1  UNL1        0.0500
      6 C          16.2322   40.4675   32.5874 C.ar    1  UNL1        0.0372
      7 C          15.3203   40.0570   31.6907 C.ar    1  UNL1        0.0139
      8 C          16.0080   39.1059   30.8060 C.ar    1  UNL1        0.0136
      9 C          17.3138   39.0394   31.2646 C.ar    1  UNL1        0.0371
     10 N          17.4259   39.8581   32.3264 N.ar    1  UNL1       -0.3333
     11 C          18.4163   38.1972   30.6762 C.3     1  UNL1        0.0500
     12 C          18.6559   40.0666   33.0944 C.3     1  UNL1        0.1145
     13 C          19.8668   39.7550   32.2127 C.3     1  UNL1        0.0271
     14 C          18.6599   39.1402   34.3122 C.3     1  UNL1        0.1646
     15 O          19.6695   39.5645   35.2301 O.3     1  UNL1       -0.3491
     16 C          19.6792   40.9727   35.4731 C.3     1  UNL1        0.1742
     17 C          13.2837   38.4145   30.8192 C.1     1  UNL1        0.1070
     18 N          12.6376   38.6417   31.7256 N.1     1  UNL1       -0.1906
     19 O          12.1538   37.4549   28.3657 O.3     1  UNL1       -0.4346
     20 C          11.6302   36.5267   27.3795 C.3     1  UNL1        0.2957
     21 C          11.1038   37.2961   26.1954 C.ar    1  UNL1        0.2812
     22 N          11.6546   38.3491   25.6446 N.ar    1  UNL1       -0.1876
     23 C          10.8373   38.6944   24.6242 C.ar    1  UNL1        0.2034
     24 N           9.8455   37.8423   24.6185 N.ar    1  UNL1       -0.0559
     25 O           9.9871   37.0319   25.5098 O.2     1  UNL1       -0.3331
     26 C          11.0273   39.8316   23.6894 C.ar    1  UNL1        0.0391
     27 C          10.9110   39.6339   22.3152 C.ar    1  UNL1        0.0028
     28 C          11.0882   40.6949   21.4505 C.ar    1  UNL1       -0.0042
     29 C          11.3803   41.9529   21.9460 C.ar    1  UNL1       -0.0225
     30 C          11.5024   42.1536   23.3091 C.ar    1  UNL1       -0.0042
     31 C          11.3222   41.1007   24.1831 C.ar    1  UNL1        0.0028
     32 C          11.5721   43.1077   20.9970 C.3     1  UNL1        0.0224
     33 C          10.3512   44.0277   21.0598 C.3     1  UNL1        0.0047
     34 C          11.7364   42.5749   19.5722 C.3     1  UNL1        0.0047
@<TRIPOS>BOND
     1     5     6    1
     2     6    10   ar
     3     6     7   ar
     4     7     8   ar
     5     8     9   ar
     6     8     3    1
     7     9    10   ar
     8     9    11    1
     9    10    12    1
    10    12    13    1
    11    12    14    1
    12    14    15    1
    13    15    16    1
    14     3     4    2
    15     4    17    1
    16     4     1    1
    17    17    18    3
    18     1     2    2
    19     1    19    1
    20    19    20    1
    21    20    21    1
    22    21    25   ar
    23    21    22   ar
    24    22    23   ar
    25    23    24   ar
    26    23    26    1
    27    24    25   ar
    28    26    31   ar
    29    26    27   ar
    30    27    28   ar
    31    28    29   ar
    32    29    30   ar
    33    29    32    1
    34    30    31   ar
    35    32    33    1
    36    32    34    1
@<TRIPOS>MOLECULE
ZINC21707753
 28 30 0 0 0
SMALL
GASTEIGER

@<TRIPOS>ATOM
      1 N          24.7678   39.6450   28.6674 N.ar    1  UNL1       -0.2756
      2 C          25.7850   40.5306   28.7782 C.ar    1  UNL1        0.2637
      3 O          26.9135   40.1643   29.0508 O.2     1  UNL1       -0.2669
      4 C          25.4780   41.9499   28.5570 C.ar    1  UNL1        0.0739
      5 C          26.4581   42.9373   28.6493 C.ar    1  UNL1        0.0071
      6 C          26.1232   44.2451   28.4358 C.ar    1  UNL1        0.0116
      7 C          24.8155   44.6024   28.1264 C.ar    1  UNL1        0.0592
      8 C          23.8277   43.6471   28.0290 C.ar    1  UNL1        0.0307
      9 C          24.1454   42.3031   28.2435 C.ar    1  UNL1        0.0888
     10 N          23.2077   41.3305   28.1588 N.ar    1  UNL1       -0.2223
     11 C          23.5082   40.0704   28.3556 C.ar    1  UNL1        0.1739
     12 CL         24.4227   46.2724   27.8603 Cl      1  UNL1       -0.0822
     13 C          25.0213   38.2176   28.8780 C.3     1  UNL1        0.1136
     14 C          25.1135   37.9319   30.3782 C.3     1  UNL1        0.0567
     15 C          24.3730   36.6313   30.6961 C.3     1  UNL1        0.1442
     16 O          25.2672   35.7179   31.3349 O.3     1  UNL1       -0.3537
     17 C          26.2840   36.1743   33.4793 C.3     1  UNL1        0.0346
     18 C          25.0697   35.6018   32.7455 C.3     1  UNL1        0.1422
     19 S          22.2260   38.8697   28.2184 S.3     1  UNL1       -0.0689
     20 C          21.4890   39.0073   29.8659 C.3     1  UNL1        0.1344
     21 C          20.0949   38.4355   29.8419 C.2     1  UNL1        0.1903
     22 O          19.7650   37.6763   28.9529 O.2     1  UNL1       -0.2899
     23 C          19.1730   38.7818   30.8520 C.ar    1  UNL1        0.0658
     24 C          19.4148   39.3097   32.1171 C.ar    1  UNL1        0.0108
     25 C          18.3245   39.5558   32.9076 C.ar    1  UNL1        0.0186
     26 C          17.0789   39.2780   32.4287 C.ar    1  UNL1        0.0870
     27 S          17.3927   38.6646   30.8379 S.2     1  UNL1       -0.0726
     28 CL         15.5478   39.4939   33.2180 Cl      1  UNL1       -0.0752
@<TRIPOS>BOND
     1    17    18    1
     2    18    16    1
     3    16    15    1
     4    15    14    1
     5    14    13    1
     6    13     1    1
     7     1    11   ar
     8     1     2   ar
     9     2     3    2
    10     2     4   ar
    11     4     9   ar
    12     4     5   ar
    13     5     6   ar
    14     6     7   ar
    15     7     8   ar
    16     7    12    1
    17     8     9   ar
    18     9    10   ar
    19    10    11   ar
    20    11    19    1
    21    19    20    1
    22    20    21    1
    23    21    22    2
    24    21    23    1
    25    23    27   ar
    26    23    24   ar
    27    24    25   ar
    28    25    26   ar
    29    26    27   ar
    30    26    28    1
@<TRIPOS>MOLECULE
ZINC28022273
 33 36 0 0 0
SMALL
GASTEIGER

@<TRIPOS>ATOM
      1 N          14.4376   38.3765   30.6396 N.am    1  UNL1       -0.2313
      2 C          14.8647   38.1267   29.3860 C.2     1  UNL1        0.2757
      3 O          15.8158   38.7310   28.9378 O.2     1  UNL1       -0.2704
      4 C          15.0870   39.3263   31.4185 C.ar    1  UNL1        0.1692
      5 N          16.2227   39.2262   32.0837 N.ar    1  UNL1       -0.2237
      6 C          16.7019   40.2435   32.7836 C.ar    1  UNL1        0.0897
      7 C          16.0070   41.4204   32.8180 C.ar    1  UNL1        0.0572
      8 S          14.6103   41.0108   31.7794 S.2     1  UNL1       -0.0506
      9 C          17.9801   40.1071   33.5234 C.ar    1  UNL1        0.0182
     10 C          18.8095   39.0113   33.2909 C.ar    1  UNL1        0.0015
     11 C          20.0002   38.8923   33.9784 C.ar    1  UNL1        0.0000
     12 C          20.3657   39.8522   34.9051 C.ar    1  UNL1        0.0000
     13 C          19.5440   40.9391   35.1438 C.ar    1  UNL1        0.0000
     14 C          18.3537   41.0714   34.4581 C.ar    1  UNL1        0.0015
     15 C          13.2886   37.6463   31.1811 C.3     1  UNL1        0.1265
     16 C          11.0393   38.5506   30.8908 C.2     1  UNL1       -0.0031
     17 C          12.1880   38.6195   31.5169 C.2     1  UNL1       -0.0043
     18 C          14.1604   37.0964   28.5413 C.3     1  UNL1        0.2933
     19 O          12.8367   37.5800   28.1916 O.3     1  UNL1       -0.4353
     20 C          12.3750   37.2665   26.9639 C.2     1  UNL1        0.3419
     21 O          12.1352   36.1084   26.6820 O.2     1  UNL1       -0.2449
     22 C          12.1620   38.3221   25.9692 C.2     1  UNL1        0.0834
     23 C          10.9328   38.8444   25.7941 C.2     1  UNL1        0.0257
     24 C          10.7186   39.9057   24.7941 C.ar    1  UNL1        0.0815
     25 C           9.9614   41.0381   25.1441 C.ar    1  UNL1        0.0191
     26 C           9.7575   42.0265   24.2277 C.ar    1  UNL1        0.0030
     27 C          10.3201   41.8746   22.9450 C.ar    1  UNL1        0.0177
     28 C          10.1477   42.8535   21.9540 C.ar    1  UNL1        0.0015
     29 C          10.7055   42.6736   20.7247 C.ar    1  UNL1        0.0001
     30 C          11.4424   41.5266   20.4337 C.ar    1  UNL1        0.0015
     31 C          11.6352   40.5597   21.3708 C.ar    1  UNL1        0.0191
     32 C          11.0742   40.7085   22.6536 C.ar    1  UNL1        0.0812
     33 N          11.2427   39.7728   23.5883 N.ar    1  UNL1       -0.2454
@<TRIPOS>BOND
     1    16    17    2
     2    17    15    1
     3    15     1    1
     4     1     4    1
     5     1     2   am
     6     4     8   ar
     7     4     5   ar
     8     5     6   ar
     9     6     7   ar
    10     6     9    1
    11     7     8   ar
    12     9    14   ar
    13     9    10   ar
    14    10    11   ar
    15    11    12   ar
    16    12    13   ar
    17    13    14   ar
    18     2     3    2
    19     2    18    1
    20    18    19    1
    21    19    20    1
    22    20    21    2
    23    20    22    1
    24    22    23    2
    25    23    24    1
    26    24    33   ar
    27    24    25   ar
    28    25    26   ar
    29    26    27   ar
    30    27    32   ar
    31    27    28   ar
    32    28    29   ar
    33    29    30   ar
    34    30    31   ar
    35    31    32   ar
    36    32    33   ar
@<TRIPOS>MOLECULE
ZINC11309174
 32 35 0 0 0
SMALL
GASTEIGER

@<TRIPOS>ATOM
      1 C          20.7488   37.7858   28.5082 C.2     1  UNL1        0.3799
      2 O          20.6127   36.6350   28.1436 O.2     1  UNL1       -0.2413
      3 C          20.0203   38.2754   29.6965 C.ar    1  UNL1        0.2597
      4 N          18.6876   38.3420   29.8175 N.ar    1  UNL1       -0.2001
      5 C          18.3717   38.8237   31.0020 C.ar    1  UNL1        0.1715
      6 N          19.5345   39.0785   31.6736 N.ar    1  UNL1       -0.2101
      7 N          20.5777   38.7105   30.8084 N.ar    1  UNL1       -0.1374
      8 C          19.6603   39.5982   32.9674 C.ar    1  UNL1        0.0845
      9 C          19.6170   40.9712   33.1732 C.ar    1  UNL1        0.0192
     10 C          19.7366   41.4804   34.4514 C.ar    1  UNL1        0.0015
     11 C          19.9104   40.6255   35.5244 C.ar    1  UNL1        0.0001
     12 C          19.9587   39.2583   35.3223 C.ar    1  UNL1        0.0015
     13 C          19.8344   38.7424   34.0472 C.ar    1  UNL1        0.0192
     14 C          17.0094   39.0478   31.5115 C.ar    1  UNL1        0.0653
     15 C          16.5968   39.2982   32.7960 C.ar    1  UNL1        0.0101
     16 C          15.2543   39.4775   33.0356 C.ar    1  UNL1        0.0076
     17 C          14.3800   39.4019   31.9975 C.ar    1  UNL1        0.0355
     18 S          15.4640   39.0728   30.6178 S.2     1  UNL1       -0.0833
     19 O          21.5642   38.6157   27.8287 O.3     1  UNL1       -0.4331
     20 C          22.7729   38.0389   27.2676 C.3     1  UNL1        0.2930
     21 N          24.5989   39.5896   27.8838 N.am    1  UNL1       -0.2678
     22 C          23.7491   39.1391   26.9396 C.2     1  UNL1        0.2708
     23 O          23.7700   39.6192   25.8261 O.2     1  UNL1       -0.2708
     24 C          24.5736   39.0098   29.2289 C.3     1  UNL1        0.1203
     25 C          25.7609   36.8898   29.4680 C.2     1  UNL1       -0.0031
     26 C          25.8240   38.1982   29.4496 C.2     1  UNL1       -0.0047
     27 C          25.5478   40.6593   27.5648 C.3     1  UNL1        0.1270
     28 C          25.0949   41.9422   28.2127 C.ar    1  UNL1        0.0273
     29 C          25.7819   42.7718   29.0356 C.ar    1  UNL1        0.0044
     30 C          25.1555   43.9044   29.5210 C.ar    1  UNL1        0.0072
     31 C          23.8764   44.1578   29.1508 C.ar    1  UNL1        0.0352
     32 S          23.5145   42.7643   28.0953 S.2     1  UNL1       -0.0891
@<TRIPOS>BOND
     1    25    26    2
     2    26    24    1
     3    24    21    1
     4    21    27    1
     5    21    22   am
     6    27    28    1
     7    28    32   ar
     8    28    29   ar
     9    29    30   ar
    10    30    31   ar
    11    31    32   ar
    12    22    23    2
    13    22    20    1
    14    20    19    1
    15    19     1    1
    16     1     2    2
    17     1     3    1
    18     3     7   ar
    19     3     4   ar
    20     4     5   ar
    21     5     6   ar
    22     5    14    1
    23     6     7   ar
    24     6     8    1
    25     8    13   ar
    26     8     9   ar
    27     9    10   ar
    28    10    11   ar
    29    11    12   ar
    30    12    13   ar
    31    14    18   ar
    32    14    15   ar
    33    15    16   ar
    34    16    17   ar
    35    17    18   ar
@<TRIPOS>MOLECULE
ZINC18617611
 33 36 0 0 0
SMALL
GASTEIGER

@<TRIPOS>ATOM
      1 O          13.2186   37.5807   27.1473 O.3     1  UNL1       -0.4368
      2 C          13.9463   36.6403   27.7853 C.2     1  UNL1        0.3419
      3 O          13.9240   35.4874   27.3976 O.2     1  UNL1       -0.2449
      4 C          14.7360   36.9956   28.9065 C.2     1  UNL1        0.0835
      5 C          15.1512   38.2720   29.0632 C.2     1  UNL1        0.0292
      6 C          15.9703   38.6406   30.2262 C.ar    1  UNL1        0.1234
      7 C          15.4973   39.1284   31.4264 C.ar    1  UNL1        0.1179
      8 N          16.5750   39.3288   32.2131 N.ar    1  UNL1       -0.2257
      9 N          17.7002   38.9537   31.4663 N.ar    1  UNL1       -0.0635
     10 N          17.3104   38.5551   30.3062 N.ar    1  UNL1       -0.1287
     11 C          16.5700   39.8413   33.5856 C.3     1  UNL1        0.1556
     12 C          17.9891   40.0074   34.0648 C.ar    1  UNL1        0.0022
     13 C          18.5110   41.2734   34.2542 C.ar    1  UNL1       -0.0023
     14 C          19.8111   41.4257   34.6984 C.ar    1  UNL1       -0.0003
     15 C          20.5928   40.3122   34.9431 C.ar    1  UNL1       -0.0000
     16 C          20.0726   39.0463   34.7487 C.ar    1  UNL1       -0.0003
     17 C          18.7708   38.8939   34.3096 C.ar    1  UNL1       -0.0023
     18 C          11.8266   37.6488   27.4630 C.3     1  UNL1        0.2770
     19 C          11.0164   37.3220   26.2350 C.2     1  UNL1        0.2181
     20 O          10.6310   36.1869   26.0468 O.2     1  UNL1       -0.2873
     21 C           9.6826   41.7918   24.1848 C.3     1  UNL1        0.0500
     22 C          10.1026   40.3575   24.3792 C.ar    1  UNL1        0.0376
     23 C          10.2965   39.7570   25.5653 C.ar    1  UNL1        0.0168
     24 C          10.6945   38.3744   25.2687 C.ar    1  UNL1        0.0512
     25 C          10.7082   38.2723   23.8904 C.ar    1  UNL1        0.0403
     26 N          10.3472   39.4623   23.3784 N.ar    1  UNL1       -0.3292
     27 C          11.0634   37.0402   23.0987 C.3     1  UNL1        0.0501
     28 C          10.2380   39.7580   21.9477 C.3     1  UNL1        0.1385
     29 C          10.9379   41.0587   21.6487 C.ar    1  UNL1        0.0299
     30 C          10.5099   42.1065   20.9030 C.ar    1  UNL1        0.0046
     31 C          11.3289   43.2118   20.7677 C.ar    1  UNL1        0.0072
     32 C          12.5401   43.2108   21.3761 C.ar    1  UNL1        0.0352
     33 S          12.5491   41.6160   22.1785 S.2     1  UNL1       -0.0889
@<TRIPOS>BOND
     1    21    22    1
     2    22    26   ar
     3    22    23   ar
     4    23    24   ar
     5    24    25   ar
     6    24    19    1
     7    25    26   ar
     8    25    27    1
     9    26    28    1
    10    28    29    1
    11    29    33   ar
    12    29    30   ar
    13    30    31   ar
    14    31    32   ar
    15    32    33   ar
    16    19    20    2
    17    19    18    1
    18    18     1    1
    19     1     2    1
    20     2     3    2
    21     2     4    1
    22     4     5    2
    23     5     6    1
    24     6    10   ar
    25     6     7   ar
    26     7     8   ar
    27     8     9   ar
    28     8    11    1
    29     9    10   ar
    30    11    12    1
    31    12    17   ar
    32    12    13   ar
    33    13    14   ar
    34    14    15   ar
    35    15    16   ar
    36    16    17   ar
@<TRIPOS>MOLECULE
ZINC23964294
 32 34 0 0 0
SMALL
GASTEIGER

@<TRIPOS>ATOM
      1 C          13.3532   37.6100   29.5046 C.2     1  UNL1        0.0068
      2 C          13.5924   37.4706   28.1824 C.2     1  UNL1        0.0819
      3 C          16.5356   39.1379   30.7726 C.ar    1  UNL1        0.1722
      4 C          15.6493   38.4387   29.9774 C.ar    1  UNL1        0.0400
      5 C          14.3027   38.3479   30.3493 C.ar    1  UNL1        0.0034
      6 C          13.8646   38.9572   31.5308 C.ar    1  UNL1        0.0033
      7 C          14.7568   39.6481   32.3206 C.ar    1  UNL1        0.0400
      8 C          16.0913   39.7421   31.9482 C.ar    1  UNL1        0.1722
      9 O          17.8436   39.2322   30.4121 O.3     1  UNL1       -0.4724
     10 C          20.1659   38.6763   30.7843 C.3     1  UNL1        0.0512
     11 C          18.7163   38.1926   30.8590 C.3     1  UNL1        0.2057
     12 O          16.9665   40.4241   32.7315 O.3     1  UNL1       -0.4724
     13 C          17.5175   39.7249   33.8493 C.3     1  UNL1        0.2054
     14 C          18.9837   40.1239   34.0283 C.3     1  UNL1        0.0438
     15 C          19.0613   41.4693   34.7526 C.3     1  UNL1        0.0038
     16 C          19.7054   39.0573   34.8544 C.3     1  UNL1        0.0038
     17 C          12.6794   36.7537   27.3685 C.2     1  UNL1        0.3418
     18 O          13.0259   35.7184   26.8320 O.2     1  UNL1       -0.2449
     19 O          11.4258   37.2197   27.1890 O.3     1  UNL1       -0.4397
     20 C          11.1249   37.7996   25.9181 C.3     1  UNL1        0.2446
     21 C          10.1795   36.8763   25.1472 C.3     1  UNL1        0.0575
     22 C          10.4646   39.1390   26.1209 C.2     1  UNL1        0.2662
     23 O          10.2619   39.5516   27.2432 O.2     1  UNL1       -0.2710
     24 N          10.0992   39.8784   25.0549 N.am    1  UNL1       -0.2722
     25 C           9.5453   41.2282   25.2383 C.3     1  UNL1        0.0990
     26 C          10.5299   42.2369   24.6145 C.3     1  UNL1        0.0542
     27 C          10.9952   41.7007   23.2999 C.ar    1  UNL1        0.0066
     28 C          10.8992   40.4252   22.8357 C.ar    1  UNL1        0.0002
     29 C          11.4213   40.1802   21.5667 C.ar    1  UNL1        0.0045
     30 C          11.9848   41.1873   20.8609 C.ar    1  UNL1        0.0348
     31 S          11.8043   42.5673   21.9809 S.2     1  UNL1       -0.0910
     32 C          10.2431   39.3450   23.6936 C.3     1  UNL1        0.1204
@<TRIPOS>BOND
     1    10    11    1
     2    11     9    1
     3     9     3    1
     4     3     8   ar
     5     3     4   ar
     6     4     5   ar
     7     5     6   ar
     8     5     1    1
     9     6     7   ar
    10     7     8   ar
    11     8    12    1
    12    12    13    1
    13    13    14    1
    14    14    15    1
    15    14    16    1
    16     1     2    2
    17     2    17    1
    18    17    18    2
    19    17    19    1
    20    19    20    1
    21    20    21    1
    22    20    22    1
    23    22    23    2
    24    22    24   am
    25    24    32    1
    26    24    25    1
    27    25    26    1
    28    26    27    1
    29    27    31   ar
    30    27    28   ar
    31    28    29   ar
    32    28    32    1
    33    29    30   ar
    34    30    31   ar
@<TRIPOS>MOLECULE
ZINC05924781
 28 27 0 0 0
SMALL
GASTEIGER

@<TRIPOS>ATOM
      1 C          24.2307   39.7311   27.6159 C.2     1  UNL1        0.2947
      2 C          24.4001   39.2725   26.2163 C.2     1  UNL1        0.2304
      3 C          25.1967   39.9688   25.3654 C.2     1  UNL1        0.1084
      4 C          26.5892   39.7503   25.3657 C.2     1  UNL1        0.1272
      5 CL         27.2670   38.4721   26.3249 Cl      1  UNL1       -0.0689
      6 CL         27.6263   40.7596   24.4069 Cl      1  UNL1       -0.0689
      7 CL         24.5002   41.1281   24.2770 Cl      1  UNL1       -0.0785
      8 N          23.7008   38.0551   25.7464 N.pl3   1  UNL1        0.0657
      9 O          22.4204   38.1072   25.4424 O.2     1  UNL1       -0.1258
     10 O          24.3589   36.9201   25.6325 O.2     1  UNL1       -0.1258
     11 N          24.7402   40.9090   28.0013 N.pl3   1  UNL1       -0.1938
     12 C          24.1272   42.1578   27.5421 C.3     1  UNL1        0.2021
     13 C          23.4482   42.8566   28.7218 C.3     1  UNL1        0.0508
     14 C          23.7933   44.3470   28.6990 C.3     1  UNL1        0.0043
     15 C          24.9453   44.6185   29.6685 C.3     1  UNL1        0.0001
     16 C          25.9104   40.9479   28.8820 C.3     1  UNL1        0.2021
     17 C          26.9894   41.8348   28.2575 C.3     1  UNL1        0.0508
     18 C          29.3222   41.6401   27.3841 C.3     1  UNL1        0.0001
     19 C          28.3652   41.2100   28.4977 C.3     1  UNL1        0.0043
     20 N          23.5633   38.9704   28.4941 N.pl3   1  UNL1       -0.1938
     21 C          22.2296   39.3731   28.9471 C.3     1  UNL1        0.2021
     22 C          21.2461   38.2228   28.7233 C.3     1  UNL1        0.0508
     23 C          20.2095   38.2118   29.8487 C.3     1  UNL1        0.0043
     24 C          20.6834   39.1170   30.9874 C.3     1  UNL1        0.0001
     25 C          24.1675   37.7359   29.0015 C.3     1  UNL1        0.2021
     26 C          24.3080   37.8245   30.5224 C.3     1  UNL1        0.0508
     27 C          24.3109   36.4148   31.1172 C.3     1  UNL1        0.0043
     28 C          25.0300   36.4326   32.4676 C.3     1  UNL1        0.0001
@<TRIPOS>BOND
     1    18    19    1
     2    19    17    1
     3    17    16    1
     4    16    11    1
     5    11    12    1
     6    11     1    1
     7    12    13    1
     8    13    14    1
     9    14    15    1
    10     1     2    2
    11     1    20    1
    12     2     3    1
    13     2     8    1
    14     3     4    2
    15     3     7    1
    16     4     5    1
    17     4     6    1
    18     8     9    2
    19     8    10    2
    20    20    21    1
    21    20    25    1
    22    21    22    1
    23    22    23    1
    24    23    24    1
    25    25    26    1
    26    26    27    1
    27    27    28    1
@<TRIPOS>MOLECULE
ZINC23842028
 31 33 0 0 0
SMALL
GASTEIGER

@<TRIPOS>ATOM
      1 N          25.3905   44.8895   27.4876 N.4     1  UNL1        0.3030
      2 C          24.8550   46.2551   27.5670 C.3     1  UNL1        0.1698
      3 H          24.8520   44.3820   26.7857 H       1  UNL1        0.2096
      4 C          26.7955   44.8992   27.0588 C.3     1  UNL1        0.2429
      5 C          26.1686   42.3840   24.4620 C.ar    1  UNL1        0.1899
      6 N          26.0360   43.1008   25.5469 N.ar    1  UNL1       -0.1413
      7 N          26.9408   44.0940   25.8435 N.ar    1  UNL1       -0.1862
      8 C          27.9707   44.3121   24.9874 C.ar    1  UNL1        0.1514
      9 S          29.2391   45.4580   25.0811 S.2     1  UNL1       -0.0231
     10 S          27.6489   43.0742   23.7402 S.2     1  UNL1       -0.0251
     11 C          24.3917   41.6010   23.0992 C.2     1  UNL1        0.2307
     12 O          24.2121   42.7329   22.7024 O.2     1  UNL1       -0.2745
     13 N          25.3673   41.3473   23.9938 N.am    1  UNL1       -0.2390
     14 C          25.5841   39.9800   24.4732 C.3     1  UNL1        0.0818
     15 C          26.7395   39.7484   25.4490 C.3     1  UNL1        0.0220
     16 C          26.8488   39.2588   24.0029 C.3     1  UNL1        0.0220
     17 C          22.5822   41.0103   21.5100 C.3     1  UNL1        0.0101
     18 C          23.5238   40.4781   22.5921 C.3     1  UNL1        0.0857
     19 C          25.2360   44.1881   28.7691 C.3     1  UNL1        0.1353
     20 C          24.1692   43.1318   28.6382 C.ar    1  UNL1        0.0359
     21 C          22.8405   43.4670   28.8217 C.ar    1  UNL1        0.0047
     22 C          21.8577   42.5029   28.6971 C.ar    1  UNL1        0.0401
     23 C          22.2042   41.1948   28.3988 C.ar    1  UNL1        0.1779
     24 C          23.5421   40.8564   28.2196 C.ar    1  UNL1        0.1725
     25 C          24.5217   41.8287   28.3404 C.ar    1  UNL1        0.0414
     26 O          23.8871   39.5740   27.9263 O.3     1  UNL1       -0.4684
     27 C          24.9922   39.0195   28.6428 C.3     1  UNL1        0.2526
     28 O          21.2390   40.2440   28.2809 O.3     1  UNL1       -0.4205
     29 C          20.7368   39.6758   29.4921 C.3     1  UNL1        0.5087
     30 F          19.4591   39.1525   29.2670 F       1  UNL1       -0.1550
     31 F          21.5916   38.6530   29.9167 F       1  UNL1       -0.1550
@<TRIPOS>UNITY_ATOM_ATTR
1 1
charge 1
@<TRIPOS>BOND
     1    17    18    1
     2    18    11    1
     3    11    12    2
     4    11    13   am
     5    13     5    1
     6    13    14    1
     7     5    10   ar
     8     5     6   ar
     9     6     7   ar
    10     7     8   ar
    11     7     4    1
    12     8     9    2
    13     8    10   ar
    14     4     1    1
    15     1     2    1
    16     1    19    1
    17    19    20    1
    18    20    25   ar
    19    20    21   ar
    20    21    22   ar
    21    22    23   ar
    22    23    24   ar
    23    23    28    1
    24    24    25   ar
    25    24    26    1
    26    26    27    1
    27    28    29    1
    28    29    30    1
    29    29    31    1
    30    14    16    1
    31    14    15    1
    32    15    16    1
    33     1     3    1
@<TRIPOS>MOLECULE
ZINC22513042
 33 35 0 0 0
SMALL
GASTEIGER

@<TRIPOS>ATOM
      1 C          24.7237   40.8726   24.7540 C.ar    1  UNL1        0.1316
      2 C          25.2771   41.3995   25.9030 C.ar    1  UNL1        0.0859
      3 N          24.9899   40.9171   27.1191 N.ar    1  UNL1       -0.3214
      4 C          24.1243   39.8621   27.3183 C.ar    1  UNL1        0.0646
      5 C          23.8600   39.3994   28.6022 C.ar    1  UNL1        0.0341
      6 C          22.9879   38.3389   28.7863 C.ar    1  UNL1        0.0771
      7 C          22.3698   37.7295   27.6908 C.ar    1  UNL1        0.1535
      8 C          22.6237   38.1700   26.4231 C.ar    1  UNL1        0.0355
      9 C          23.4975   39.2417   26.2223 C.ar    1  UNL1        0.0573
     10 C          23.7865   39.7428   24.8684 C.ar    1  UNL1        0.2047
     11 O          23.2715   39.2429   23.8831 O.2     1  UNL1       -0.2862
     12 F          21.5215   36.6964   27.8863 F       1  UNL1       -0.2029
     13 C          25.0638   41.4303   23.4378 C.2     1  UNL1        0.3458
     14 O          24.5668   42.4788   23.0751 O.2     1  UNL1       -0.2447
     15 O          25.9267   40.7792   22.6322 O.3     1  UNL1       -0.4453
     16 C          26.2389   41.0260   20.2299 C.3     1  UNL1        0.0513
     17 C          25.4264   40.3528   21.3376 C.3     1  UNL1        0.2089
     18 N          22.7244   37.8767   30.0733 N.pl3   1  UNL1       -0.3057
     19 C          23.9671   37.7170   30.8401 C.3     1  UNL1        0.0908
     20 C          24.4958   36.2922   30.6636 C.3     1  UNL1        0.0198
     21 C          25.7285   36.3142   29.7576 C.3     1  UNL1        0.0018
     22 C          24.8766   35.7166   32.0291 C.3     1  UNL1        0.0018
     23 C          21.7862   38.7666   30.7706 C.3     1  UNL1        0.0908
     24 C          20.3519   38.3962   30.3880 C.3     1  UNL1        0.0198
     25 C          19.4448   38.5380   31.6119 C.3     1  UNL1        0.0018
     26 C          19.8624   39.3302   29.2794 C.3     1  UNL1        0.0018
     27 C          25.6222   41.5358   28.2867 C.3     1  UNL1        0.1328
     28 C          25.1918   42.9765   28.3867 C.ar    1  UNL1        0.0004
     29 C          23.8721   43.2863   28.6578 C.ar    1  UNL1       -0.0024
     30 C          23.4782   44.6079   28.7544 C.ar    1  UNL1       -0.0003
     31 C          24.4018   45.6196   28.5692 C.ar    1  UNL1       -0.0000
     32 C          25.7202   45.3099   28.2928 C.ar    1  UNL1       -0.0003
     33 C          26.1152   43.9883   28.2016 C.ar    1  UNL1       -0.0024
@<TRIPOS>BOND
     1    16    17    1
     2    17    15    1
     3    15    13    1
     4    13    14    2
     5    13     1    1
     6     1    10   ar
     7     1     2   ar
     8     2     3   ar
     9     3     4   ar
    10     3    27    1
    11     4     9   ar
    12     4     5   ar
    13     5     6   ar
    14     6     7   ar
    15     6    18    1
    16     7     8   ar
    17     7    12    1
    18     8     9   ar
    19     9    10   ar
    20    10    11    2
    21    18    19    1
    22    18    23    1
    23    19    20    1
    24    20    21    1
    25    20    22    1
    26    23    24    1
    27    24    25    1
    28    24    26    1
    29    27    28    1
    30    28    33   ar
    31    28    29   ar
    32    29    30   ar
    33    30    31   ar
    34    31    32   ar
    35    32    33   ar
@<TRIPOS>MOLECULE
ZINC14981699
 35 38 0 0 0
SMALL
GASTEIGER

@<TRIPOS>ATOM
      1 C          19.8424   38.9036   30.2984 C.ar    1  UNL1        0.1349
      2 C          19.8844   39.0405   31.7077 C.ar    1  UNL1        0.0493
      3 C          21.0857   39.2197   32.4023 C.ar    1  UNL1        0.0043
      4 C          21.0639   39.3462   33.7602 C.ar    1  UNL1        0.0002
      5 C          19.8632   39.2995   34.4632 C.ar    1  UNL1        0.0015
      6 C          18.6763   39.1257   33.8158 C.ar    1  UNL1        0.0192
      7 C          18.6620   38.9924   32.4208 C.ar    1  UNL1        0.0855
      8 N          17.5220   38.8203   31.7350 N.ar    1  UNL1       -0.2253
      9 C          17.5434   38.6993   30.4290 C.ar    1  UNL1        0.1965
     10 N          18.6601   38.7428   29.7197 N.ar    1  UNL1       -0.2104
     11 C          21.3728   37.5983   29.0887 C.3     1  UNL1        0.1139
     12 N          20.9984   38.9423   29.5485 N.pl3   1  UNL1       -0.2873
     13 C          20.8602   39.8670   28.4154 C.3     1  UNL1        0.1190
     14 C          21.9813   40.8735   28.4489 C.ar    1  UNL1        0.0008
     15 C          21.7045   42.2064   28.6902 C.ar    1  UNL1        0.0007
     16 C          22.7295   43.1336   28.7219 C.ar    1  UNL1        0.0398
     17 C          24.0376   42.7278   28.5118 C.ar    1  UNL1        0.1724
     18 C          24.3162   41.3860   28.2693 C.ar    1  UNL1        0.1721
     19 C          23.2842   40.4620   28.2385 C.ar    1  UNL1        0.0374
     20 O          25.5984   40.9829   28.0622 O.3     1  UNL1       -0.4684
     21 C          26.1627   40.0933   29.0276 C.3     1  UNL1        0.2526
     22 O          25.0470   43.6385   28.5431 O.3     1  UNL1       -0.4684
     23 C          25.0379   44.5805   29.6176 C.3     1  UNL1        0.2526
     24 C          16.2369   38.5072   29.7030 C.3     1  UNL1        0.1736
     25 N          15.1263   38.7606   30.6448 N.4     1  UNL1        0.2976
     26 H          15.3823   38.3994   31.5638 H       1  UNL1        0.2088
     27 C          13.9038   38.0711   30.1814 C.3     1  UNL1        0.1858
     28 C          12.7818   38.4567   31.0527 C.1     1  UNL1       -0.0174
     29 C          11.8871   38.7644   31.7477 C.1     1  UNL1       -0.0084
     30 C          14.8767   40.2134   30.7524 C.3     1  UNL1        0.1723
     31 C          15.2903   40.6773   32.1252 C.ar    1  UNL1        0.1780
     32 C          15.0400   40.0360   33.2808 C.ar    1  UNL1        0.0422
     33 C          15.6031   40.8194   34.3144 C.ar    1  UNL1        0.0436
     34 C          16.1638   41.8927   33.7284 C.ar    1  UNL1        0.1794
     35 O          15.9763   41.7983   32.4019 O.2     1  UNL1       -0.4488
@<TRIPOS>UNITY_ATOM_ATTR
25 1
charge 1
@<TRIPOS>BOND
     1    11    12    1
     2    12    13    1
     3    12     1    1
     4    13    14    1
     5    14    19   ar
     6    14    15   ar
     7    15    16   ar
     8    16    17   ar
     9    17    18   ar
    10    17    22    1
    11    18    19   ar
    12    18    20    1
    13    20    21    1
    14    22    23    1
    15     1    10   ar
    16     1     2   ar
    17     2     7   ar
    18     2     3   ar
    19     3     4   ar
    20     4     5   ar
    21     5     6   ar
    22     6     7   ar
    23     7     8   ar
    24     8     9   ar
    25     9    10   ar
    26     9    24    1
    27    24    25    1
    28    27    28    1
    29    27    25    1
    30    28    29    3
    31    30    31    1
    32    30    25    1
    33    31    35   ar
    34    31    32   ar
    35    32    33   ar
    36    33    34   ar
    37    34    35   ar
    38    25    26    1
@<TRIPOS>MOLECULE
ZINC03028661
 32 34 0 0 0
SMALL
GASTEIGER

@<TRIPOS>ATOM
      1 N          21.2622   51.3087   24.1927 N.3     1  UNL1       -0.1466
      2 S          20.6959   50.7892   22.7259 S.O2    1  UNL1        0.0636
      3 O          19.8893   51.8380   22.2073 O.2     1  UNL1       -0.1528
      4 O          20.1985   49.4732   22.9254 O.2     1  UNL1       -0.1528
      5 C          22.0855   50.6450   21.6522 C.ar    1  UNL1        0.1179
      6 C          23.3534   50.9382   22.1194 C.ar    1  UNL1        0.0153
      7 C          24.4435   50.8246   21.2773 C.ar    1  UNL1       -0.0205
      8 C          24.2668   50.4126   19.9695 C.ar    1  UNL1       -0.0045
      9 C          22.9987   50.1246   19.5010 C.ar    1  UNL1       -0.0033
     10 C          21.9083   50.2383   20.3433 C.ar    1  UNL1       -0.0033
     11 C          20.5265   49.9182   19.8343 C.3     1  UNL1        0.0324
     12 C          25.8254   51.1437   21.7866 C.3     1  UNL1        0.0311
     13 C          21.2605   52.7380   24.5142 C.3     1  UNL1        0.1225
     14 C          24.7993   53.7108   26.7090 C.ar    1  UNL1        0.0756
     15 C          24.8791   53.4070   25.3485 C.ar    1  UNL1        0.0062
     16 C          23.7336   53.0941   24.6466 C.ar    1  UNL1       -0.0027
     17 C          22.5076   53.0804   25.2877 C.ar    1  UNL1       -0.0045
     18 C          22.4206   53.3856   26.6345 C.ar    1  UNL1       -0.0027
     19 C          23.5589   53.6952   27.3497 C.ar    1  UNL1        0.0062
     20 C          26.0219   54.0466   27.4672 C.2     1  UNL1        0.3412
     21 O          25.9964   54.0695   28.6815 O.2     1  UNL1       -0.2449
     22 O          27.1649   54.3275   26.8121 O.3     1  UNL1       -0.4454
     23 C          28.6860   52.5657   26.0958 C.3     1  UNL1        0.0513
     24 C          28.3461   53.5746   27.1947 C.3     1  UNL1        0.2089
     25 C          21.7650   50.3390   25.1690 C.3     1  UNL1        0.1225
     26 C          20.8410   50.2988   26.3588 C.ar    1  UNL1       -0.0043
     27 C          19.4901   50.5410   26.1928 C.ar    1  UNL1       -0.0006
     28 C          18.6411   50.4997   27.2824 C.ar    1  UNL1        0.0294
     29 C          19.1457   50.2259   28.5425 C.ar    1  UNL1        0.1401
     30 C          20.4997   49.9887   28.7084 C.ar    1  UNL1        0.0294
     31 C          21.3459   50.0254   27.6164 C.ar    1  UNL1       -0.0006
     32 F          18.3174   50.1899   29.6092 F       1  UNL1       -0.2042
@<TRIPOS>BOND
     1    23    24    1
     2    24    22    1
     3    22    20    1
     4    20    21    2
     5    20    14    1
     6    14    19   ar
     7    14    15   ar
     8    15    16   ar
     9    16    17   ar
    10    17    18   ar
    11    17    13    1
    12    18    19   ar
    13    13     1    1
    14     1    25    1
    15     1     2    1
    16    25    26    1
    17    26    31   ar
    18    26    27   ar
    19    27    28   ar
    20    28    29   ar
    21    29    30   ar
    22    29    32    1
    23    30    31   ar
    24     2     3    2
    25     2     4    2
    26     2     5    1
    27     5    10   ar
    28     5     6   ar
    29     6     7   ar
    30     7     8   ar
    31     7    12    1
    32     8     9   ar
    33     9    10   ar
    34    10    11    1
@<TRIPOS>MOLECULE
ZINC27533765
 28 30 0 0 0
SMALL
GASTEIGER

@<TRIPOS>ATOM
      1 C          10.8580   38.8133   28.0129 C.3     1  UNL1        0.1698
      2 N          12.0785   38.0786   27.6541 N.4     1  UNL1        0.3031
      3 H          12.8108   38.7623   27.4622 H       1  UNL1        0.2096
      4 C          11.8747   37.2819   26.4369 C.3     1  UNL1        0.1361
      5 C          11.2812   38.1529   25.3598 C.ar    1  UNL1        0.0449
      6 C          12.0006   39.2231   24.8616 C.ar    1  UNL1        0.0263
      7 C          11.4586   40.0189   23.8699 C.ar    1  UNL1        0.1428
      8 C          10.1924   39.7515   23.3831 C.ar    1  UNL1        0.0249
      9 C           9.4700   38.6854   23.8843 C.ar    1  UNL1        0.0130
     10 C          10.0142   37.8852   24.8734 C.ar    1  UNL1        0.0593
     11 CL          9.1075   36.5454   25.5032 Cl      1  UNL1       -0.0824
     12 N          12.2313   41.1615   23.3334 N.pl3   1  UNL1        0.0577
     13 O          13.0502   40.9817   22.4499 O.2     1  UNL1       -0.1261
     14 O          12.0484   42.2816   23.7753 O.2     1  UNL1       -0.1261
     15 C          12.5305   37.2331   28.7671 C.3     1  UNL1        0.2453
     16 N          13.8232   37.7193   29.2559 N.ar    1  UNL1       -0.1582
     17 C          14.0318   38.4466   30.3746 C.ar    1  UNL1        0.2024
     18 S          12.8455   38.9767   31.4893 S.2     1  UNL1       -0.0096
     19 N          15.3616   38.6730   30.4398 N.ar    1  UNL1       -0.2089
     20 N          15.9478   38.0597   29.3258 N.ar    1  UNL1       -0.0440
     21 N          15.0683   37.5144   28.6491 N.ar    1  UNL1       -0.0395
     22 C          16.0627   39.4236   31.4845 C.3     1  UNL1        0.1366
     23 C          17.5098   38.9357   31.5791 C.3     1  UNL1        0.0594
     24 C          18.1772   39.5711   32.7715 C.ar    1  UNL1        0.0093
     25 C          19.3236   39.2127   33.3998 C.ar    1  UNL1        0.0028
     26 C          19.7511   39.9511   34.4871 C.ar    1  UNL1        0.0072
     27 C          19.0114   41.0120   34.8932 C.ar    1  UNL1        0.0351
     28 S          17.6671   40.9959   33.7185 S.2     1  UNL1       -0.0907
@<TRIPOS>UNITY_ATOM_ATTR
2 1
charge 1
@<TRIPOS>BOND
     1     1     2    1
     2     2     4    1
     3     2    15    1
     4     4     5    1
     5     5    10   ar
     6     5     6   ar
     7     6     7   ar
     8     7     8   ar
     9     7    12    1
    10     8     9   ar
    11     9    10   ar
    12    10    11    1
    13    12    13    2
    14    12    14    2
    15    15    16    1
    16    16    21   ar
    17    16    17   ar
    18    17    18    2
    19    17    19   ar
    20    19    20   ar
    21    19    22    1
    22    20    21   ar
    23    22    23    1
    24    23    24    1
    25    24    28   ar
    26    24    25   ar
    27    25    26   ar
    28    26    27   ar
    29    27    28   ar
    30     2     3    1
@<TRIPOS>MOLECULE
ZINC29165819
 29 32 0 0 0
SMALL
GASTEIGER

@<TRIPOS>ATOM
      1 N          21.4073   51.4344   23.1581 N.ar    1  UNL1       -0.2754
      2 C          20.5293   51.3363   24.1786 C.ar    1  UNL1        0.2639
      3 O          19.3877   51.7416   24.0688 O.2     1  UNL1       -0.2669
      4 C          21.0082   50.7154   25.4415 C.ar    1  UNL1        0.0762
      5 C          20.3237   50.4910   26.6396 C.ar    1  UNL1       -0.0136
      6 C          21.0241   49.8825   27.6695 C.ar    1  UNL1        0.0049
      7 S          22.6174   49.6012   27.0613 S.2     1  UNL1       -0.0725
      8 C          22.4099   50.2710   25.4345 C.ar    1  UNL1        0.1168
      9 N          23.1608   50.4231   24.3783 N.ar    1  UNL1       -0.2155
     10 C          22.6873   50.9800   23.2680 C.ar    1  UNL1        0.1795
     11 C          20.1579   49.7023   28.8883 C.3     1  UNL1        0.0330
     12 C          18.7125   49.8650   28.3719 C.3     1  UNL1        0.0099
     13 C          18.9029   50.7680   27.1385 C.3     1  UNL1        0.0271
     14 C          20.9710   52.0397   21.8974 C.3     1  UNL1        0.1110
     15 C          20.3256   50.9699   21.0143 C.3     1  UNL1        0.0247
     16 C          19.5925   51.6423   19.8519 C.3     1  UNL1        0.0020
     17 C          19.0637   50.5719   18.8950 C.3     1  UNL1        0.0001
     18 C          19.8383   50.2768   16.5381 C.3     1  UNL1        0.0000
     19 C          18.9969   51.1434   17.4773 C.3     1  UNL1        0.0000
     20 S          23.7320   51.1396   21.9211 S.3     1  UNL1       -0.0297
     21 C          24.4763   49.5979   21.9380 C.ar    1  UNL1        0.1355
     22 C          23.9500   48.4002   21.4315 C.ar    1  UNL1        0.2477
     23 N          24.8493   47.4500   21.6465 N.ar    1  UNL1       -0.2003
     24 C          25.8978   47.9579   22.2573 C.ar    1  UNL1        0.1807
     25 N          25.7108   49.2792   22.4569 N.ar    1  UNL1       -0.3006
     26 C          26.6469   50.2020   23.1039 C.3     1  UNL1        0.1326
     27 N          22.6341   48.2295   20.7746 N.pl3   1  UNL1        0.0779
     28 O          22.4612   48.6310   19.5322 O.2     1  UNL1       -0.1245
     29 O          21.6365   47.6761   21.4327 O.2     1  UNL1       -0.1245
@<TRIPOS>BOND
     1    18    19    1
     2    19    17    1
     3    17    16    1
     4    16    15    1
     5    15    14    1
     6    14     1    1
     7     1    10   ar
     8     1     2   ar
     9     2     3    2
    10     2     4   ar
    11     4     8   ar
    12     4     5   ar
    13     5    13    1
    14     5     6   ar
    15     6     7   ar
    16     6    11    1
    17     7     8   ar
    18     8     9   ar
    19     9    10   ar
    20    10    20    1
    21    20    21    1
    22    21    25   ar
    23    21    22   ar
    24    22    23   ar
    25    22    27    1
    26    23    24   ar
    27    24    25   ar
    28    25    26    1
    29    27    28    2
    30    27    29    2
    31    11    12    1
    32    12    13    1
@<TRIPOS>MOLECULE
ZINC10758327
 30 32 0 0 0
SMALL
GASTEIGER

@<TRIPOS>ATOM
      1 C          23.5984   38.3693   26.6876 C.2     1  UNL1        0.0117
      2 C          23.5239   38.8714   27.9719 C.2     1  UNL1        0.0709
      3 C          28.1049   36.9392   24.9085 C.3     1  UNL1        0.0500
      4 C          26.8483   37.7135   25.2124 C.ar    1  UNL1        0.0372
      5 C          25.8436   37.2891   25.9966 C.ar    1  UNL1        0.0139
      6 C          24.8389   38.3617   26.0000 C.ar    1  UNL1        0.0134
      7 C          25.3557   39.3661   25.1982 C.ar    1  UNL1        0.0371
      8 N          26.5536   38.9598   24.7389 N.ar    1  UNL1       -0.3333
      9 C          24.6924   40.6847   24.8939 C.3     1  UNL1        0.0500
     10 C          27.4197   39.7443   23.8554 C.3     1  UNL1        0.1145
     11 C          27.6406   38.9807   22.5482 C.3     1  UNL1        0.0271
     12 C          28.7666   39.9819   24.5412 C.3     1  UNL1        0.1646
     13 O          28.6570   41.0921   25.4343 O.3     1  UNL1       -0.3491
     14 C          28.1225   42.2724   24.8316 C.3     1  UNL1        0.1742
     15 C          22.2178   39.0208   28.6275 C.2     1  UNL1        0.0092
     16 O          21.4175   39.8371   28.2106 O.co2   1  UNL1       -0.8592
     17 N          21.9059   38.2536   29.6908 N.2     1  UNL1       -0.2353
     18 C          20.6704   38.3948   30.3110 C.ar    1  UNL1        0.2146
     19 N          19.5039   37.8316   30.0273 N.ar    1  UNL1       -0.1214
     20 N          18.4665   38.0739   30.7024 N.ar    1  UNL1       -0.1438
     21 C          18.4746   38.8996   31.7299 C.ar    1  UNL1        0.1122
     22 S          20.1967   39.3895   31.7225 S.2     1  UNL1       -0.0306
     23 C          17.3539   39.3134   32.6484 C.3     1  UNL1        0.0484
     24 C          16.1096   39.6399   31.8201 C.3     1  UNL1        0.0065
     25 C          14.9719   40.0601   32.7528 C.3     1  UNL1        0.0004
     26 C          15.3945   41.2973   33.5476 C.3     1  UNL1        0.0000
     27 C          16.6388   40.9709   34.3759 C.3     1  UNL1        0.0004
     28 C          17.7765   40.5507   33.4432 C.3     1  UNL1        0.0065
     29 C          24.7198   39.2466   28.6645 C.1     1  UNL1        0.1007
     30 N          25.6685   39.5443   29.2139 N.1     1  UNL1       -0.1908
@<TRIPOS>UNITY_ATOM_ATTR
16 1
charge -1
@<TRIPOS>BOND
     1     3     4    1
     2     4     8   ar
     3     4     5   ar
     4     5     6   ar
     5     6     7   ar
     6     6     1    1
     7     7     8   ar
     8     7     9    1
     9     8    10    1
    10    10    11    1
    11    10    12    1
    12    12    13    1
    13    13    14    1
    14     1     2    2
    15     2    29    1
    16     2    15    1
    17    29    30    3
    18    15    16    1
    19    15    17    2
    20    17    18    1
    21    18    22   ar
    22    18    19   ar
    23    19    20   ar
    24    20    21   ar
    25    21    22   ar
    26    21    23    1
    27    23    28    1
    28    23    24    1
    29    24    25    1
    30    25    26    1
    31    26    27    1
    32    27    28    1
@<TRIPOS>MOLECULE
ZINC25555113
 31 33 0 0 0
SMALL
GASTEIGER

@<TRIPOS>ATOM
      1 C          28.0741   36.3100   30.0834 C.3     1  UNL1        0.0000
      2 C          27.6686   36.3933   31.5790 C.3     1  UNL1        0.0000
      3 C          26.2480   37.0289   31.6161 C.3     1  UNL1        0.0000
      4 C          26.1444   37.6647   30.2244 C.3     1  UNL1        0.0003
      5 C          26.7539   36.5709   29.3316 C.3     1  UNL1        0.0000
      6 C          26.8941   37.0871   27.9192 C.3     1  UNL1        0.0000
      7 C          25.4948   37.4985   27.4199 C.3     1  UNL1        0.0003
      8 C          24.9153   38.5955   28.2967 C.3     1  UNL1        0.0041
      9 C          24.8081   38.1786   29.7672 C.3     1  UNL1        0.0046
     10 C          23.6507   37.2523   30.0683 C.3     1  UNL1        0.0257
     11 C          22.5672   37.2559   29.0373 C.2     1  UNL1       -0.0293
     12 C          22.5129   38.0865   28.0200 C.2     1  UNL1       -0.0131
     13 C          23.5802   39.1153   27.7836 C.3     1  UNL1        0.0200
     14 C          23.6574   39.4276   26.2892 C.3     1  UNL1        0.0044
     15 C          25.9747   35.2588   29.3308 C.3     1  UNL1        0.0000
     16 C          21.3894   38.0025   27.0834 C.2     1  UNL1        0.0686
     17 O          20.3877   38.6636   27.2752 O.co2   1  UNL1       -0.5449
     18 O          21.4666   37.1921   26.0091 O.co2   1  UNL1       -0.5449
     19 C          28.5974   34.9158   29.7474 C.3     1  UNL1        0.0000
     20 C          29.8622   35.0376   28.8950 C.3     1  UNL1        0.0000
     21 C          28.9246   34.1683   31.0416 C.3     1  UNL1        0.0000
     22 C          28.8719   32.6605   30.7869 C.3     1  UNL1        0.0000
     23 C          27.4748   32.2748   30.2965 C.3     1  UNL1        0.0000
     24 C          26.6708   30.1721   29.2125 C.3     1  UNL1        0.0000
     25 C          27.5969   31.3806   29.0610 C.3     1  UNL1        0.0000
     26 C          27.1991   32.1749   27.8153 C.3     1  UNL1        0.0000
     27 C          23.2069   40.4015   28.5278 C.3     1  UNL1        0.0100
     28 C          24.2050   41.5049   28.1715 C.3     1  UNL1        0.0420
     29 C          23.4839   42.8253   28.0830 C.2     1  UNL1        0.0503
     30 O          22.5007   43.0229   28.7567 O.co2   1  UNL1       -0.5492
     31 O          23.9339   43.7816   27.2555 O.co2   1  UNL1       -0.5492
@<TRIPOS>UNITY_ATOM_ATTR
18 1
charge -1
31 1
charge -1
@<TRIPOS>BOND
     1    24    25    1
     2    25    26    1
     3    25    23    1
     4    23    22    1
     5    22    21    1
     6    21    19    1
     7    19    20    1
     8    19     1    1
     9     1     5    1
    10     1     2    1
    11     2     3    1
    12     3     4    1
    13     4     9    1
    14     4     5    1
    15     5     6    1
    16     5    15    1
    17     6     7    1
    18     7     8    1
    19     8    13    1
    20     8     9    1
    21     9    10    1
    22    10    11    1
    23    11    12    2
    24    12    13    1
    25    12    16    1
    26    13    14    1
    27    13    27    1
    28    27    28    1
    29    28    29    1
    30    29    30   ar
    31    29    31   ar
    32    16    17   ar
    33    16    18   ar
@<TRIPOS>MOLECULE
ZINC25479062
 31 33 0 0 0
SMALL
GASTEIGER

@<TRIPOS>ATOM
      1 C          17.8510   38.7625   31.0224 C.ar    1  UNL1        0.1650
      2 N          18.7036   38.3841   30.1118 N.ar    1  UNL1       -0.1452
      3 N          19.9952   38.5594   30.6270 N.ar    1  UNL1       -0.1773
      4 C          19.8702   39.0466   31.8786 C.ar    1  UNL1        0.1850
      5 S          21.1522   39.4291   32.9468 S.2     1  UNL1       -0.0110
      6 N          18.5537   39.1772   32.1365 N.ar    1  UNL1       -0.2887
      7 C          13.7698   37.6144   28.3892 C.3     1  UNL1        0.0310
      8 C          14.4111   38.1940   29.6237 C.ar    1  UNL1       -0.0218
      9 C          13.6203   38.7109   30.6347 C.ar    1  UNL1       -0.0043
     10 C          14.2012   39.2442   31.7710 C.ar    1  UNL1       -0.0002
     11 C          15.5748   39.2638   31.9031 C.ar    1  UNL1        0.0030
     12 C          16.3775   38.7447   30.8873 C.ar    1  UNL1        0.0356
     13 C          15.7853   38.2077   29.7437 C.ar    1  UNL1       -0.0012
     14 C          17.9688   39.6739   33.3845 C.3     1  UNL1        0.1414
     15 C          18.0681   41.2002   33.4222 C.3     1  UNL1        0.1668
     16 O          18.0657   41.6443   34.7805 O.3     1  UNL1       -0.3490
     17 C          19.2913   41.4010   35.4737 C.3     1  UNL1        0.1742
     18 C          21.2516   38.2620   29.9346 C.3     1  UNL1        0.2437
     19 N          21.4282   39.1986   28.8168 N.4     1  UNL1        0.3031
     20 C          20.7874   38.6893   27.5970 C.3     1  UNL1        0.1698
     21 H          20.9719   40.0757   29.0677 H       1  UNL1        0.2096
     22 C          22.8514   39.4799   28.5857 C.3     1  UNL1        0.1369
     23 C          23.0738   40.9704   28.5767 C.ar    1  UNL1        0.0551
     24 C          21.9918   41.8310   28.5931 C.ar    1  UNL1        0.0031
     25 C          22.1961   43.1979   28.5897 C.ar    1  UNL1       -0.0000
     26 C          23.4820   43.7047   28.5593 C.ar    1  UNL1        0.0017
     27 C          24.5635   42.8445   28.5376 C.ar    1  UNL1        0.0239
     28 C          24.3594   41.4771   28.5463 C.ar    1  UNL1        0.1444
     29 N          25.5176   40.5557   28.5226 N.pl3   1  UNL1        0.0576
     30 O          25.9302   40.1233   27.4613 O.2     1  UNL1       -0.1261
     31 O          26.0582   40.2299   29.5644 O.2     1  UNL1       -0.1261
@<TRIPOS>UNITY_ATOM_ATTR
19 1
charge 1
@<TRIPOS>BOND
     1     7     8    1
     2     8    13   ar
     3     8     9   ar
     4     9    10   ar
     5    10    11   ar
     6    11    12   ar
     7    12    13   ar
     8    12     1    1
     9     1     6   ar
    10     1     2   ar
    11     2     3   ar
    12     3     4   ar
    13     3    18    1
    14     4     5    2
    15     4     6   ar
    16     6    14    1
    17    14    15    1
    18    15    16    1
    19    16    17    1
    20    18    19    1
    21    19    20    1
    22    19    22    1
    23    22    23    1
    24    23    28   ar
    25    23    24   ar
    26    24    25   ar
    27    25    26   ar
    28    26    27   ar
    29    27    28   ar
    30    28    29    1
    31    29    30    2
    32    29    31    2
    33    19    21    1
@<TRIPOS>MOLECULE
ZINC01281783
 29 31 0 0 0
SMALL
GASTEIGER

@<TRIPOS>ATOM
      1 N          12.5124   37.7712   27.8879 N.ar    1  UNL1       -0.2695
      2 C          13.6791   37.5772   27.2251 C.ar    1  UNL1        0.1817
      3 N          14.8372   37.7703   27.7955 N.ar    1  UNL1       -0.2186
      4 C          14.9333   38.1789   29.0541 C.ar    1  UNL1        0.1169
      5 C          13.7893   38.4218   29.8488 C.ar    1  UNL1        0.0768
      6 C          12.4946   38.1859   29.1698 C.ar    1  UNL1        0.2640
      7 O          11.4408   38.3618   29.7551 O.2     1  UNL1       -0.2669
      8 C          14.0357   38.8480   31.1553 C.ar    1  UNL1       -0.0030
      9 C          15.3210   39.0044   31.5876 C.ar    1  UNL1        0.1027
     10 S          16.2783   38.5512   30.1510 S.2     1  UNL1       -0.0617
     11 C          12.8856   39.1344   32.0859 C.3     1  UNL1        0.0320
     12 C          15.7964   39.4363   32.9037 C.2     1  UNL1        0.3469
     13 O          15.3089   38.9624   33.9121 O.2     1  UNL1       -0.2443
     14 O          16.7752   40.3599   32.9975 O.3     1  UNL1       -0.4489
     15 C          17.7923   40.1419   34.0107 C.3     1  UNL1        0.1692
     16 C          18.4733   41.4708   34.3440 C.3     1  UNL1        0.0436
     17 C          19.5449   41.2412   35.4115 C.3     1  UNL1        0.0037
     18 C          20.5867   40.2525   34.8840 C.3     1  UNL1        0.0002
     19 C          19.9057   38.9236   34.5508 C.3     1  UNL1        0.0037
     20 C          18.8340   39.1533   33.4832 C.3     1  UNL1        0.0436
     21 C          11.2447   37.5310   27.1941 C.3     1  UNL1        0.1883
     22 C          10.1155   36.1173   25.4710 C.3     1  UNL1        0.0026
     23 C          11.3558   36.2556   26.3561 C.3     1  UNL1        0.0342
     24 C          10.9360   38.6988   26.2930 C.2     1  UNL1        0.3378
     25 O          10.1525   39.5465   26.6497 O.2     1  UNL1       -0.2480
     26 O          11.5314   38.7970   25.0940 O.3     1  UNL1       -0.4510
     27 C          10.8437   39.5738   24.0782 C.3     1  UNL1        0.1691
     28 C          11.8001   40.6196   23.5014 C.3     1  UNL1        0.0473
     29 C          10.3697   38.6442   22.9593 C.3     1  UNL1        0.0473
@<TRIPOS>BOND
     1    22    23    1
     2    23    21    1
     3    21    24    1
     4    21     1    1
     5    24    25    2
     6    24    26    1
     7    26    27    1
     8    27    28    1
     9    27    29    1
    10     1     6   ar
    11     1     2   ar
    12     2     3   ar
    13     3     4   ar
    14     4    10   ar
    15     4     5   ar
    16     5     6   ar
    17     5     8   ar
    18     6     7    2
    19     8     9   ar
    20     8    11    1
    21     9    10   ar
    22     9    12    1
    23    12    13    2
    24    12    14    1
    25    14    15    1
    26    15    20    1
    27    15    16    1
    28    16    17    1
    29    17    18    1
    30    18    19    1
    31    19    20    1
@<TRIPOS>MOLECULE
ZINC13840651
 29 31 0 0 0
SMALL
GASTEIGER

@<TRIPOS>ATOM
      1 N          20.7906   38.6446   31.0537 N.am    1  UNL1       -0.3221
      2 H          21.4040   38.4255   31.7920 H       1  UNL1        0.1514
      3 C          18.8205   39.0981   32.5208 C.ar    1  UNL1        0.0914
      4 C          17.3760   39.2615   32.5131 C.ar    1  UNL1       -0.0122
      5 C          16.7881   39.1248   31.3054 C.ar    1  UNL1        0.0047
      6 S          18.1202   38.7930   30.1876 S.2     1  UNL1       -0.0768
      7 C          19.4422   38.8344   31.3069 C.ar    1  UNL1        0.0834
      8 C          15.3269   39.2320   30.9949 C.3     1  UNL1        0.0327
      9 C          14.5447   39.1509   32.3138 C.3     1  UNL1        0.0055
     10 C          15.1869   40.1022   33.3275 C.3     1  UNL1        0.0050
     11 C          16.5505   39.5593   33.7588 C.3     1  UNL1        0.0268
     12 C          19.5913   39.2117   33.7601 C.2     1  UNL1        0.3426
     13 O          19.5028   38.3487   34.6127 O.2     1  UNL1       -0.2448
     14 O          20.3998   40.2736   33.9565 O.3     1  UNL1       -0.4454
     15 C          19.0163   41.6898   35.3743 C.3     1  UNL1        0.0513
     16 C          20.3337   40.9213   35.2544 C.3     1  UNL1        0.2089
     17 C          21.2630   38.7599   29.7967 C.2     1  UNL1       -0.0367
     18 S          21.2457   40.2814   29.0120 S.2     1  UNL1       -0.0618
     19 N          21.7490   37.6775   29.1576 N.am    1  UNL1       -0.6259
     20 C          23.1319   37.4771   29.0724 C.ar    1  UNL1       -0.1004
     21 C          23.8489   37.0895   30.1970 C.ar    1  UNL1       -0.0207
     22 C          25.2130   36.8924   30.1108 C.ar    1  UNL1        0.0279
     23 C          25.8660   37.0809   28.9041 C.ar    1  UNL1        0.1417
     24 C          25.1531   37.4672   27.7818 C.ar    1  UNL1        0.0518
     25 C          23.7876   37.6599   27.8624 C.ar    1  UNL1        0.1224
     26 F          27.2006   36.8879   28.8220 F       1  UNL1       -0.2041
     27 N          23.0249   38.0665   26.6607 N.pl3   1  UNL1        0.0559
     28 O          23.2113   39.1625   26.1631 O.2     1  UNL1       -0.1262
     29 O          22.2109   37.3052   26.1696 O.2     1  UNL1       -0.1262
@<TRIPOS>UNITY_ATOM_ATTR
19 1
charge -1
@<TRIPOS>BOND
     1    15    16    1
     2    16    14    1
     3    14    12    1
     4    12    13    2
     5    12     3    1
     6     3     7   ar
     7     3     4   ar
     8     4    11    1
     9     4     5   ar
    10     5     6   ar
    11     5     8    1
    12     6     7   ar
    13     7     1    1
    14     1    17    1
    15    17    18    2
    16    17    19    1
    17    19    20    1
    18    20    25   ar
    19    20    21   ar
    20    21    22   ar
    21    22    23   ar
    22    23    24   ar
    23    23    26    1
    24    24    25   ar
    25    25    27    1
    26    27    28    2
    27    27    29    2
    28     8     9    1
    29     9    10    1
    30    10    11    1
    31     1     2    1
@<TRIPOS>MOLECULE
ZINC30680128
 30 33 0 0 0
SMALL
GASTEIGER

@<TRIPOS>ATOM
      1 C          22.7853   40.5188   28.2737 C.ar    1  UNL1        0.0550
      2 C          23.0242   41.9621   28.2902 C.ar    1  UNL1       -0.0153
      3 C          24.1653   42.3590   27.6999 C.ar    1  UNL1        0.0017
      4 S          24.9229   40.8592   27.1242 S.2     1  UNL1       -0.1163
      5 C          23.7379   39.7187   27.6629 C.ar    1  UNL1       -0.0856
      6 C          24.3419   43.8522   27.7600 C.3     1  UNL1        0.0329
      7 C          23.3577   44.3166   28.8561 C.3     1  UNL1        0.0099
      8 C          22.2965   43.1988   28.8192 C.3     1  UNL1        0.0271
      9 C          21.5846   39.9411   28.8802 C.2     1  UNL1        0.3400
     10 O          20.5107   40.0410   28.3176 O.2     1  UNL1       -0.2449
     11 O          21.6691   39.2979   30.0629 O.3     1  UNL1       -0.4370
     12 C          20.5073   38.5349   30.4829 C.3     1  UNL1        0.2723
     13 C          19.9626   40.4396   35.1737 C.3     1  UNL1        0.0345
     14 C          19.6778   39.9857   33.7652 C.ar    1  UNL1        0.0220
     15 C          20.5904   39.4045   32.8719 C.ar    1  UNL1        0.0358
     16 C          19.9206   39.1557   31.7244 C.ar    1  UNL1        0.1669
     17 O          18.6486   39.5464   31.8743 O.2     1  UNL1       -0.4478
     18 C          18.4795   40.0557   33.1124 C.ar    1  UNL1        0.2162
     19 C          17.2305   40.5893   33.6605 C.2     1  UNL1        0.3761
     20 O          17.0606   41.7917   33.7278 O.2     1  UNL1       -0.2414
     21 O          16.2684   39.7472   34.0905 O.3     1  UNL1       -0.4392
     22 C          15.3527   39.2268   33.0910 C.3     1  UNL1        0.2561
     23 N          23.7406   38.3418   27.5184 N.am    1  UNL1       -0.6030
     24 C          24.8298   37.6296   27.8690 C.2     1  UNL1        0.1167
     25 O          25.6435   37.3061   27.0237 O.2     1  UNL1       -0.3098
     26 C          25.0345   37.2445   29.2684 C.ar    1  UNL1        0.1609
     27 C          24.0526   36.9675   30.1766 C.ar    1  UNL1        0.0420
     28 C          24.6966   36.6463   31.3816 C.ar    1  UNL1        0.0438
     29 C          26.0263   36.7401   31.1594 C.ar    1  UNL1        0.1797
     30 O          26.2261   37.0958   29.8837 O.2     1  UNL1       -0.4491
@<TRIPOS>UNITY_ATOM_ATTR
23 1
charge -1
@<TRIPOS>BOND
     1    13    14    1
     2    14    18   ar
     3    14    15   ar
     4    15    16   ar
     5    16    17   ar
     6    16    12    1
     7    17    18   ar
     8    18    19    1
     9    19    20    2
    10    19    21    1
    11    21    22    1
    12    12    11    1
    13    11     9    1
    14     9    10    2
    15     9     1    1
    16     1     5   ar
    17     1     2   ar
    18     2     8    1
    19     2     3   ar
    20     3     4   ar
    21     3     6    1
    22     4     5   ar
    23     5    23    1
    24    23    24    1
    25    24    25    2
    26    24    26    1
    27    26    30   ar
    28    26    27   ar
    29    27    28   ar
    30    28    29   ar
    31    29    30   ar
    32     6     7    1
    33     7     8    1
@<TRIPOS>MOLECULE
ZINC30790245
 30 32 0 0 0
SMALL
GASTEIGER

@<TRIPOS>ATOM
      1 C          22.0568   39.1688   27.4996 C.2     1  UNL1        0.0069
      2 C          22.0637   38.1241   28.3753 C.2     1  UNL1        0.0816
      3 C          25.3575   41.8236   27.3421 C.ar    1  UNL1       -0.0225
      4 C          24.4394   41.9275   28.3730 C.ar    1  UNL1       -0.0043
      5 C          23.3632   41.0680   28.4319 C.ar    1  UNL1       -0.0003
      6 C          23.2000   40.0884   27.4450 C.ar    1  UNL1        0.0002
      7 C          24.1362   39.9870   26.4089 C.ar    1  UNL1       -0.0003
      8 C          25.2037   40.8579   26.3623 C.ar    1  UNL1       -0.0043
      9 C          26.3627   43.8539   28.3501 C.3     1  UNL1        0.0047
     10 C          26.5313   42.7670   27.2866 C.3     1  UNL1        0.0224
     11 C          27.8227   41.9904   27.5514 C.3     1  UNL1        0.0047
     12 C          23.2773   37.8265   29.1584 C.ar    1  UNL1        0.0357
     13 C          23.4596   37.8631   30.5174 C.ar    1  UNL1        0.0072
     14 C          24.6972   37.5401   31.0270 C.ar    1  UNL1        0.0075
     15 C          25.6960   37.1966   30.1729 C.ar    1  UNL1        0.0354
     16 S          24.8894   37.3172   28.5849 S.2     1  UNL1       -0.0862
     17 C          20.8597   37.2932   28.5393 C.2     1  UNL1        0.3417
     18 O          20.5343   36.5152   27.6640 O.2     1  UNL1       -0.2449
     19 O          20.1180   37.3951   29.6604 O.3     1  UNL1       -0.4435
     20 C          19.6230   38.7158   30.0056 C.3     1  UNL1        0.2306
     21 C          18.2675   38.5861   30.7032 C.3     1  UNL1        0.1466
     22 N          18.3589   39.1422   32.0554 N.am    1  UNL1       -0.2430
     23 C          19.5184   39.4369   32.6760 C.2     1  UNL1        0.2108
     24 O          20.6399   39.2968   32.2374 O.2     1  UNL1       -0.2762
     25 C          19.1287   39.9730   34.0393 C.3     1  UNL1       -0.0138
     26 N          17.6567   39.9182   34.0250 N.am    1  UNL1       -0.6124
     27 C          17.3017   39.4234   32.8255 C.2     1  UNL1        0.1377
     28 O          16.1494   39.2467   32.4818 O.2     1  UNL1       -0.2967
     29 C          19.6123   41.4145   34.2091 C.3     1  UNL1       -0.0127
     30 C          19.6897   39.0813   35.1488 C.3     1  UNL1       -0.0127
@<TRIPOS>UNITY_ATOM_ATTR
26 1
charge -1
@<TRIPOS>BOND
     1     9    10    1
     2    10    11    1
     3    10     3    1
     4     3     8   ar
     5     3     4   ar
     6     4     5   ar
     7     5     6   ar
     8     6     7   ar
     9     6     1    1
    10     7     8   ar
    11     1     2    2
    12     2    12    1
    13     2    17    1
    14    12    16   ar
    15    12    13   ar
    16    13    14   ar
    17    14    15   ar
    18    15    16   ar
    19    17    18    2
    20    17    19    1
    21    19    20    1
    22    20    21    1
    23    21    22    1
    24    22    27   am
    25    22    23   am
    26    23    24    2
    27    23    25    1
    28    25    26    1
    29    25    29    1
    30    25    30    1
    31    26    27    1
    32    27    28    2
@<TRIPOS>MOLECULE
ZINC03426359
 30 31 0 0 0
SMALL
GASTEIGER

@<TRIPOS>ATOM
      1 C          17.8872   40.1682   32.9961 C.ar    1  UNL1        0.1184
      2 C          18.2225   39.4432   31.8712 C.ar    1  UNL1        0.0260
      3 C          19.5587   39.1237   31.6231 C.ar    1  UNL1        0.0770
      4 C          20.5479   39.5458   32.5138 C.ar    1  UNL1        0.0062
      5 C          20.1983   40.2651   33.6375 C.ar    1  UNL1       -0.0027
      6 C          18.8717   40.5780   33.8775 C.ar    1  UNL1       -0.0032
      7 C          18.4979   41.3691   35.1044 C.3     1  UNL1        0.0324
      8 S          16.2016   40.5726   33.3113 S.O2    1  UNL1        0.0630
      9 O          15.8420   39.9063   34.5138 O.2     1  UNL1       -0.1528
     10 O          16.0858   41.9803   33.1564 O.2     1  UNL1       -0.1528
     11 N          15.2996   39.8877   32.1030 N.3     1  UNL1       -0.1555
     12 C          15.6013   39.0822   29.8135 C.3     1  UNL1        0.0206
     13 C          15.4912   40.3139   30.7144 C.3     1  UNL1        0.0958
     14 C          14.3101   38.8557   32.4226 C.3     1  UNL1        0.0958
     15 C          12.9419   39.2761   31.8820 C.3     1  UNL1        0.0206
     16 C          19.9251   38.3472   30.4209 C.2     1  UNL1        0.3417
     17 O          19.0606   37.9652   29.6579 O.2     1  UNL1       -0.2449
     18 O          21.2179   38.0629   30.1709 O.3     1  UNL1       -0.4368
     19 C          21.5126   37.3739   28.9272 C.3     1  UNL1        0.2769
     20 C          21.5675   38.3730   27.8003 C.2     1  UNL1        0.2167
     21 O          20.8552   38.2315   26.8294 O.2     1  UNL1       -0.2874
     22 C          22.4857   39.5204   27.8784 C.ar    1  UNL1        0.0342
     23 C          22.0125   40.7735   28.2815 C.ar    1  UNL1       -0.0019
     24 C          22.8790   41.8434   28.3521 C.ar    1  UNL1       -0.0257
     25 C          24.2142   41.6801   28.0259 C.ar    1  UNL1       -0.0261
     26 C          24.6902   40.4436   27.6262 C.ar    1  UNL1       -0.0087
     27 C          23.8371   39.3623   27.5556 C.ar    1  UNL1       -0.0193
     28 C          24.3587   38.0152   27.1263 C.3     1  UNL1        0.0311
     29 C          25.1546   42.8550   28.1057 C.3     1  UNL1        0.0307
     30 C          22.3712   43.1943   28.7860 C.3     1  UNL1        0.0307
@<TRIPOS>BOND
     1    12    13    1
     2    13    11    1
     3    11    14    1
     4    11     8    1
     5    14    15    1
     6     8     9    2
     7     8    10    2
     8     8     1    1
     9     1     6   ar
    10     1     2   ar
    11     2     3   ar
    12     3     4   ar
    13     3    16    1
    14     4     5   ar
    15     5     6   ar
    16     6     7    1
    17    16    17    2
    18    16    18    1
    19    18    19    1
    20    19    20    1
    21    20    21    2
    22    20    22    1
    23    22    27   ar
    24    22    23   ar
    25    23    24   ar
    26    24    25   ar
    27    24    30    1
    28    25    26   ar
    29    25    29    1
    30    26    27   ar
    31    27    28    1
@<TRIPOS>MOLECULE
ZINC22652418
 31 33 0 0 0
SMALL
GASTEIGER

@<TRIPOS>ATOM
      1 C          24.5074   37.7629   29.6325 C.ar    1  UNL1        0.0824
      2 C          24.1373   37.2435   30.8681 C.ar    1  UNL1        0.0193
      3 C          24.7895   36.1423   31.3773 C.ar    1  UNL1        0.0061
      4 C          25.8234   35.5470   30.6507 C.ar    1  UNL1        0.0537
      5 C          26.1962   36.0748   29.4121 C.ar    1  UNL1        0.0061
      6 C          25.5363   37.1729   28.9065 C.ar    1  UNL1        0.0193
      7 C          26.5249   34.3661   31.1935 C.2     1  UNL1        0.2490
      8 O          26.0754   33.2524   31.0054 O.2     1  UNL1       -0.2699
      9 N          27.6636   34.5232   31.8973 N.am    1  UNL1       -0.2761
     10 C          28.3041   35.8427   31.9890 C.3     1  UNL1        0.0937
     11 C          27.4208   36.7689   32.8155 C.3     1  UNL1        0.0215
     12 C          27.5017   36.3561   34.2949 C.3     1  UNL1        0.0018
     13 C          26.6327   35.1250   34.5257 C.3     1  UNL1        0.0001
     14 C          27.4996   33.9074   34.8951 C.3     1  UNL1        0.0018
     15 C          28.7160   33.8409   33.9715 C.3     1  UNL1        0.0215
     16 C          28.2711   33.3896   32.5741 C.3     1  UNL1        0.0937
     17 C          23.5170   40.8109   28.2680 C.ar    1  UNL1        0.1777
     18 C          22.2464   40.2192   28.4702 C.ar    1  UNL1        0.0422
     19 C          22.4939   39.0027   29.0082 C.ar    1  UNL1        0.0622
     20 N          23.8433   38.8809   29.1186 N.ar    1  UNL1       -0.2335
     21 N          24.4191   39.9453   28.6871 N.ar    1  UNL1       -0.1588
     22 C          23.7815   42.1471   27.7005 C.2     1  UNL1        0.3609
     23 O          24.5931   42.2774   26.8058 O.2     1  UNL1       -0.2431
     24 O          23.1229   43.2227   28.1746 O.3     1  UNL1       -0.4444
     25 C          24.7288   44.4561   29.5273 C.3     1  UNL1        0.0513
     26 C          23.8679   44.4659   28.2625 C.3     1  UNL1        0.2089
     27 C          21.4666   37.9757   29.4094 C.3     1  UNL1        0.0459
     28 C          20.1018   38.6508   29.5585 C.3     1  UNL1        0.0063
     29 C          19.5935   38.4628   30.9894 C.3     1  UNL1        0.0004
     30 C          20.2558   39.4939   31.9055 C.3     1  UNL1        0.0000
     31 C          18.0758   38.6533   31.0206 C.3     1  UNL1        0.0000
@<TRIPOS>BOND
     1    25    26    1
     2    26    24    1
     3    24    22    1
     4    22    23    2
     5    22    17    1
     6    17    21   ar
     7    17    18   ar
     8    18    19   ar
     9    19    20   ar
    10    19    27    1
    11    20    21   ar
    12    20     1    1
    13     1     6   ar
    14     1     2   ar
    15     2     3   ar
    16     3     4   ar
    17     4     5   ar
    18     4     7    1
    19     5     6   ar
    20     7     8    2
    21     7     9   am
    22     9    16    1
    23     9    10    1
    24    10    11    1
    25    11    12    1
    26    12    13    1
    27    13    14    1
    28    14    15    1
    29    15    16    1
    30    27    28    1
    31    28    29    1
    32    29    30    1
    33    29    31    1
@<TRIPOS>MOLECULE
ZINC20075578
 31 33 0 0 0
SMALL
GASTEIGER

@<TRIPOS>ATOM
      1 C          26.5891   37.2188   27.5262 C.2     1  UNL1        0.0710
      2 C          26.5367   37.0094   26.1955 C.2     1  UNL1        0.0611
      3 N          25.9887   37.9642   25.3928 N.2     1  UNL1       -0.2579
      4 C          25.9233   39.2968   25.8139 C.2     1  UNL1        0.0440
      5 C          25.9368   39.5849   27.0926 C.3     1  UNL1        0.0453
      6 C          26.0421   38.4794   28.1237 C.3     1  UNL1        0.0574
      7 C          25.8687   40.9897   27.6389 C.3     1  UNL1        0.0125
      8 C          26.2809   42.0279   26.5994 C.3     1  UNL1        0.0653
      9 C          25.5494   41.6889   25.3142 C.2     1  UNL1        0.1563
     10 O          24.7746   42.4591   24.7995 O.2     1  UNL1       -0.2957
     11 C          25.8392   40.3331   24.7188 C.3     1  UNL1        0.1056
     12 C          26.7887   41.1097   28.8557 C.3     1  UNL1        0.0008
     13 C          24.4285   41.2656   28.0756 C.3     1  UNL1        0.0008
     14 C          27.0780   35.7340   25.6027 C.3     1  UNL1        0.0520
     15 C          24.6732   38.2024   28.6896 C.ar    1  UNL1       -0.0162
     16 C          24.4617   38.2735   30.0540 C.ar    1  UNL1       -0.0038
     17 C          23.2062   38.0194   30.5730 C.ar    1  UNL1        0.0014
     18 C          22.1615   37.6950   29.7275 C.ar    1  UNL1        0.0241
     19 C          22.3726   37.6248   28.3634 C.ar    1  UNL1        0.1426
     20 C          23.6277   37.8828   27.8440 C.ar    1  UNL1        0.0201
     21 N          21.2539   37.2779   27.4583 N.pl3   1  UNL1        0.0577
     22 O          21.2517   37.6832   26.3097 O.2     1  UNL1       -0.1261
     23 O          20.3356   36.5870   27.8620 O.2     1  UNL1       -0.1261
     24 C          27.1654   36.2404   28.3655 C.2     1  UNL1        0.3386
     25 O          28.3633   36.2520   28.5804 O.2     1  UNL1       -0.2452
     26 O          26.3878   35.2921   28.9295 O.3     1  UNL1       -0.4456
     27 C          27.0158   34.4059   29.8581 C.3     1  UNL1        0.2088
     28 C          26.7716   34.9044   31.2838 C.3     1  UNL1        0.0475
     29 C          25.2663   35.0000   31.5400 C.3     1  UNL1        0.0038
     30 C          26.3577   36.1552   33.4679 C.3     1  UNL1        0.0000
     31 C          25.0194   35.7214   32.8664 C.3     1  UNL1        0.0001
@<TRIPOS>BOND
     1    30    31    1
     2    31    29    1
     3    29    28    1
     4    28    27    1
     5    27    26    1
     6    26    24    1
     7    24    25    2
     8    24     1    1
     9     1     6    1
    10     1     2    2
    11     2    14    1
    12     2     3    1
    13     3     4    2
    14     4     5    1
    15     4    11    1
    16     5     6    1
    17     5     7    1
    18     6    15    1
    19    15    20   ar
    20    15    16   ar
    21    16    17   ar
    22    17    18   ar
    23    18    19   ar
    24    19    20   ar
    25    19    21    1
    26    21    22    2
    27    21    23    2
    28     7     8    1
    29     7    12    1
    30     7    13    1
    31     8     9    1
    32     9    10    2
    33     9    11    1
@<TRIPOS>MOLECULE
ZINC24420980
 30 32 0 0 0
SMALL
GASTEIGER

@<TRIPOS>ATOM
      1 C          18.5592   39.0273   31.2721 C.ar    1  UNL1        0.1739
      2 N          17.6414   38.5004   30.4996 N.ar    1  UNL1       -0.2224
      3 C          16.3219   38.6822   30.7413 C.ar    1  UNL1        0.0882
      4 C          15.3445   38.1232   29.9129 C.ar    1  UNL1        0.0258
      5 C          14.0023   38.3365   30.2007 C.ar    1  UNL1        0.0771
      6 C          13.6268   39.1040   31.3110 C.ar    1  UNL1        0.0067
      7 C          14.5726   39.6552   32.1268 C.ar    1  UNL1        0.0065
      8 C          15.9258   39.4541   31.8568 C.ar    1  UNL1        0.0739
      9 C          16.9778   40.0289   32.7103 C.ar    1  UNL1        0.2637
     10 O          16.7008   40.7031   33.6850 O.2     1  UNL1       -0.2669
     11 N          18.2641   39.7809   32.3719 N.ar    1  UNL1       -0.2757
     12 C          12.9618   37.7483   29.3287 C.2     1  UNL1        0.3414
     13 O          11.7892   37.8537   29.6266 O.2     1  UNL1       -0.2449
     14 O          13.3149   37.0960   28.2046 O.3     1  UNL1       -0.4413
     15 C          12.2432   36.6954   27.3106 C.3     1  UNL1        0.2560
     16 S          20.2530   38.7445   30.8774 S.3     1  UNL1       -0.0689
     17 C          20.1513   38.6989   29.0708 C.3     1  UNL1        0.1339
     18 C          20.9509   37.5316   28.5520 C.2     1  UNL1        0.1843
     19 O          20.3831   36.5370   28.1538 O.2     1  UNL1       -0.2904
     20 C          26.6929   37.7941   28.4608 C.3     1  UNL1        0.0310
     21 C          25.1877   37.7251   28.4847 C.ar    1  UNL1       -0.0218
     22 C          24.5372   37.2728   29.6194 C.ar    1  UNL1       -0.0042
     23 C          23.1603   37.2068   29.6491 C.ar    1  UNL1        0.0025
     24 C          22.4209   37.5989   28.5287 C.ar    1  UNL1        0.0356
     25 C          23.0857   38.0497   27.3840 C.ar    1  UNL1        0.0025
     26 C          24.4630   38.1148   27.3718 C.ar    1  UNL1       -0.0042
     27 C          19.3491   40.3305   33.1886 C.3     1  UNL1        0.1109
     28 C          19.1795   39.8709   34.6380 C.3     1  UNL1        0.0228
     29 C          19.7294   38.4514   34.7907 C.3     1  UNL1        0.0020
     30 C          19.9447   40.8168   35.5658 C.3     1  UNL1        0.0020
@<TRIPOS>BOND
     1    20    21    1
     2    21    26   ar
     3    21    22   ar
     4    22    23   ar
     5    23    24   ar
     6    24    25   ar
     7    24    18    1
     8    25    26   ar
     9    18    19    2
    10    18    17    1
    11    17    16    1
    12    16     1    1
    13     1    11   ar
    14     1     2   ar
    15     2     3   ar
    16     3     8   ar
    17     3     4   ar
    18     4     5   ar
    19     5     6   ar
    20     5    12    1
    21     6     7   ar
    22     7     8   ar
    23     8     9   ar
    24     9    10    2
    25     9    11   ar
    26    11    27    1
    27    27    28    1
    28    28    29    1
    29    28    30    1
    30    12    13    2
    31    12    14    1
    32    14    15    1
@<TRIPOS>MOLECULE
ZINC24704908
 30 31 0 0 0
SMALL
GASTEIGER

@<TRIPOS>ATOM
      1 C          11.5577   36.5254   26.7422 C.2     1  UNL1        0.3170
      2 O          11.0106   35.8839   27.6077 O.2     1  UNL1       -0.2501
      3 C          10.7368   37.3300   25.7677 C.3     1  UNL1        0.1025
      4 C          10.8495   36.7104   24.3728 C.3     1  UNL1        0.0326
      5 C           9.9864   37.5103   23.3920 C.3     1  UNL1        0.0914
      6 N          10.3818   38.9238   23.4581 N.pl3   1  UNL1       -0.3064
      7 C          10.4016   39.5913   24.7669 C.3     1  UNL1        0.0914
      8 C          11.2546   38.7696   25.7316 C.3     1  UNL1        0.0326
      9 C          10.7290   39.6012   22.3280 C.2     1  UNL1        0.0646
     10 C          10.8735   40.9484   22.3628 C.2     1  UNL1        0.0619
     11 C          11.2827   41.6394   21.2136 C.2     1  UNL1        0.2680
     12 O          11.8484   41.0457   20.3167 O.2     1  UNL1       -0.2824
     13 C          11.0155   43.1172   21.0878 C.3     1  UNL1        0.4555
     14 F          12.1397   43.8323   21.5142 F       1  UNL1       -0.1631
     15 F          10.7432   43.4297   19.7516 F       1  UNL1       -0.1631
     16 F           9.9155   43.4613   21.8808 F       1  UNL1       -0.1631
     17 O          12.8968   36.5214   26.6488 O.3     1  UNL1       -0.4399
     18 C          13.6075   37.5958   27.3188 C.3     1  UNL1        0.2766
     19 C          14.3689   37.0383   28.4936 C.2     1  UNL1        0.2167
     20 O          14.7587   35.8903   28.4740 O.2     1  UNL1       -0.2874
     21 C          17.6206   39.3078   31.5166 C.3     1  UNL1        0.0307
     22 C          16.2019   38.9833   31.1255 C.ar    1  UNL1       -0.0260
     23 C          15.9566   38.1870   30.0265 C.ar    1  UNL1       -0.0019
     24 C          14.6395   37.8873   29.6649 C.ar    1  UNL1        0.0339
     25 C          13.5804   38.4035   30.4188 C.ar    1  UNL1       -0.0232
     26 C          13.8421   39.1933   31.5180 C.ar    1  UNL1       -0.0299
     27 C          15.1488   39.4854   31.8696 C.ar    1  UNL1       -0.0300
     28 C          15.4258   40.3552   33.0686 C.3     1  UNL1        0.0304
     29 C          12.7027   39.7457   32.3350 C.3     1  UNL1        0.0304
     30 C          12.1570   38.0919   30.0341 C.3     1  UNL1        0.0308
@<TRIPOS>BOND
     1    21    22    1
     2    22    27   ar
     3    22    23   ar
     4    23    24   ar
     5    24    25   ar
     6    24    19    1
     7    25    26   ar
     8    25    30    1
     9    26    27   ar
    10    26    29    1
    11    27    28    1
    12    19    20    2
    13    19    18    1
    14    18    17    1
    15    17     1    1
    16     1     2    2
    17     1     3    1
    18     3     8    1
    19     3     4    1
    20     4     5    1
    21     5     6    1
    22     6     7    1
    23     6     9    1
    24     7     8    1
    25     9    10    2
    26    10    11    1
    27    11    12    2
    28    11    13    1
    29    13    14    1
    30    13    15    1
    31    13    16    1
@<TRIPOS>MOLECULE
ZINC31167276
 30 33 0 0 0
SMALL
GASTEIGER

@<TRIPOS>ATOM
      1 C          20.1348   38.8189   31.1857 C.2     1  UNL1        0.0131
      2 C          20.0674   39.6536   32.2560 C.2     1  UNL1        0.0824
      3 C          22.8572   39.5811   28.2186 C.ar    1  UNL1        0.0311
      4 C          23.2486   38.6284   29.1472 C.ar    1  UNL1        0.0070
      5 C          22.4003   38.3215   30.1718 C.ar    1  UNL1        0.0070
      6 C          21.1703   38.9699   30.2357 C.ar    1  UNL1        0.0297
      7 S          21.2367   40.0415   28.8093 S.2     1  UNL1       -0.0869
      8 C          24.8810   41.8017   25.9667 C.ar    1  UNL1        0.0001
      9 C          24.9628   41.0239   24.8249 C.ar    1  UNL1        0.0017
     10 C          24.3696   39.7745   24.7874 C.ar    1  UNL1        0.0241
     11 C          23.6823   39.3005   25.8856 C.ar    1  UNL1        0.1433
     12 C          23.5909   40.0823   27.0388 C.ar    1  UNL1        0.0285
     13 C          24.1970   41.3402   27.0718 C.ar    1  UNL1        0.0022
     14 N          23.0436   37.9657   25.8416 N.pl3   1  UNL1        0.0577
     15 O          23.7323   36.9622   25.7953 O.2     1  UNL1       -0.1261
     16 O          21.8294   37.8710   25.8516 O.2     1  UNL1       -0.1261
     17 C          19.0332   39.5027   33.2048 C.2     1  UNL1        0.3419
     18 O          19.1764   39.9323   34.3347 O.2     1  UNL1       -0.2449
     19 O          17.8853   38.8818   32.8590 O.3     1  UNL1       -0.4369
     20 C          16.8543   39.6929   32.2923 C.3     1  UNL1        0.2770
     21 C          16.2837   39.0048   31.0789 C.ar    1  UNL1        0.2251
     22 N          14.9831   38.8899   30.7731 N.ar    1  UNL1       -0.1849
     23 C          14.9455   38.2203   29.6302 C.ar    1  UNL1        0.2945
     24 O          16.2207   37.9528   29.3010 O.2     1  UNL1       -0.3294
     25 N          16.9641   38.4107   30.1428 N.ar    1  UNL1       -0.0562
     26 C          13.7455   37.8390   28.8753 C.ar    1  UNL1        0.2012
     27 C          13.7064   37.4823   27.5589 C.ar    1  UNL1        0.0457
     28 C          12.3633   37.1997   27.2564 C.ar    1  UNL1        0.0440
     29 C          11.6524   37.3940   28.3875 C.ar    1  UNL1        0.1798
     30 O          12.4900   37.7744   29.3630 O.2     1  UNL1       -0.4456
@<TRIPOS>BOND
     1     8    13   ar
     2     8     9   ar
     3     9    10   ar
     4    10    11   ar
     5    11    12   ar
     6    11    14    1
     7    12    13   ar
     8    12     3    1
     9     3     7   ar
    10     3     4   ar
    11     4     5   ar
    12     5     6   ar
    13     6     7   ar
    14     6     1    1
    15     1     2    2
    16     2    17    1
    17    17    18    2
    18    17    19    1
    19    19    20    1
    20    20    21    1
    21    21    25   ar
    22    21    22   ar
    23    22    23   ar
    24    23    24   ar
    25    23    26    1
    26    24    25   ar
    27    26    30   ar
    28    26    27   ar
    29    27    28   ar
    30    28    29   ar
    31    29    30   ar
    32    14    15    2
    33    14    16    2
@<TRIPOS>MOLECULE
ZINC17703376
 30 32 0 0 0
SMALL
GASTEIGER

@<TRIPOS>ATOM
      1 C          19.6085   38.6602   30.6101 C.3     1  UNL1        0.2540
      2 C          18.1554   38.7758   30.9925 C.ar    1  UNL1        0.1086
      3 C          17.8180   39.2275   32.2812 C.ar    1  UNL1        0.0888
      4 C          16.4784   39.3415   32.6370 C.ar    1  UNL1       -0.0129
      5 C          15.5106   38.9952   31.6789 C.ar    1  UNL1        0.0139
      6 C          14.1375   39.0849   31.9651 C.ar    1  UNL1        0.0012
      7 C          13.2278   38.7401   31.0128 C.ar    1  UNL1        0.0001
      8 C          13.6405   38.3011   29.7564 C.ar    1  UNL1        0.0015
      9 C          14.9622   38.2027   29.4454 C.ar    1  UNL1        0.0191
     10 C          15.9325   38.5482   30.4013 C.ar    1  UNL1        0.0807
     11 N          17.2373   38.4590   30.1168 N.ar    1  UNL1       -0.2458
     12 C          16.0772   39.8220   34.0078 C.3     1  UNL1        0.0313
     13 C          18.8774   39.5772   33.2482 C.2     1  UNL1        0.3423
     14 O          19.3763   38.7131   33.9413 O.2     1  UNL1       -0.2449
     15 O          19.2908   40.8543   33.3620 O.3     1  UNL1       -0.4413
     16 C          19.5370   41.3504   34.7043 C.3     1  UNL1        0.2560
     17 O          19.7123   38.2119   29.2331 O.3     1  UNL1       -0.4418
     18 C          20.7619   37.4348   28.9227 C.2     1  UNL1        0.3178
     19 O          20.6040   36.4510   28.2395 O.2     1  UNL1       -0.2501
     20 C          22.1371   37.7895   29.4265 C.3     1  UNL1        0.1177
     21 C          23.1572   37.5982   28.3023 C.3     1  UNL1        0.0808
     22 C          22.9813   38.6856   27.2739 C.2     1  UNL1        0.1738
     23 O          22.4277   38.4419   26.2217 O.2     1  UNL1       -0.2913
     24 C          22.5409   43.4887   28.9292 C.3     1  UNL1        0.0381
     25 C          23.1823   42.2593   28.3390 C.ar    1  UNL1        0.0074
     26 C          22.6330   41.0485   28.1294 C.ar    1  UNL1        0.0052
     27 C          23.4782   40.0355   27.5439 C.ar    1  UNL1        0.0369
     28 C          24.7822   40.3987   27.2550 C.ar    1  UNL1        0.0100
     29 S          24.8509   42.0565   27.7504 S.2     1  UNL1       -0.0955
     30 C          25.8767   39.5560   26.6526 C.3     1  UNL1        0.0382
@<TRIPOS>BOND
     1    24    25    1
     2    25    29   ar
     3    25    26   ar
     4    26    27   ar
     5    27    28   ar
     6    27    22    1
     7    28    29   ar
     8    28    30    1
     9    22    23    2
    10    22    21    1
    11    21    20    1
    12    20    18    1
    13    18    19    2
    14    18    17    1
    15    17     1    1
    16     1     2    1
    17     2    11   ar
    18     2     3   ar
    19     3     4   ar
    20     3    13    1
    21     4     5   ar
    22     4    12    1
    23     5    10   ar
    24     5     6   ar
    25     6     7   ar
    26     7     8   ar
    27     8     9   ar
    28     9    10   ar
    29    10    11   ar
    30    13    14    2
    31    13    15    1
    32    15    16    1
@<TRIPOS>MOLECULE
ZINC20067710
 29 30 0 0 0
SMALL
GASTEIGER

@<TRIPOS>ATOM
      1 O          12.1603   37.5548   26.1121 O.3     1  UNL1       -0.4353
      2 C          12.3986   37.0473   27.3392 C.2     1  UNL1        0.3419
      3 O          11.7412   36.1089   27.7472 O.2     1  UNL1       -0.2449
      4 C          13.4469   37.6253   28.1783 C.2     1  UNL1        0.0819
      5 C          13.2143   37.8523   29.4882 C.2     1  UNL1        0.0067
      6 C          14.2693   38.4339   30.3327 C.ar    1  UNL1        0.0019
      7 C          13.9305   39.2325   31.4303 C.ar    1  UNL1        0.0010
      8 C          14.9240   39.7735   32.2173 C.ar    1  UNL1        0.0131
      9 C          16.2558   39.5282   31.9238 C.ar    1  UNL1        0.0801
     10 C          16.5988   38.7384   30.8385 C.ar    1  UNL1        0.1533
     11 C          15.6156   38.1862   30.0456 C.ar    1  UNL1        0.0249
     12 CL         17.5007   40.2144   32.9203 Cl      1  UNL1       -0.0805
     13 N          18.0243   38.4817   30.5333 N.pl3   1  UNL1        0.0585
     14 O          18.5440   39.0073   29.5652 O.2     1  UNL1       -0.1261
     15 O          18.6774   37.7450   31.2503 O.2     1  UNL1       -0.1261
     16 C          10.7926   37.7192   25.7323 C.3     1  UNL1        0.2929
     17 N          10.2558   39.7899   24.4903 N.am    1  UNL1       -0.2707
     18 C          10.3591   39.0166   23.2503 C.3     1  UNL1        0.1153
     19 C          10.4591   39.1879   25.6789 C.2     1  UNL1        0.2706
     20 O          10.3735   39.8281   26.7054 O.2     1  UNL1       -0.2708
     21 C           9.9318   41.2177   24.4383 C.3     1  UNL1        0.1200
     22 C          11.8915   43.4579   19.4851 C.3     1  UNL1        0.0310
     23 C          11.3807   42.8740   20.7771 C.ar    1  UNL1       -0.0222
     24 C          12.1095   41.8975   21.4304 C.ar    1  UNL1       -0.0045
     25 C          11.6407   41.3617   22.6151 C.ar    1  UNL1       -0.0032
     26 C          10.4431   41.8022   23.1468 C.ar    1  UNL1       -0.0063
     27 C           9.7118   42.7746   22.4911 C.ar    1  UNL1       -0.0245
     28 C          10.1833   43.3144   21.3088 C.ar    1  UNL1       -0.0088
     29 C           8.4032   43.2504   23.0675 C.3     1  UNL1        0.0307
@<TRIPOS>BOND
     1    22    23    1
     2    23    28   ar
     3    23    24   ar
     4    24    25   ar
     5    25    26   ar
     6    26    27   ar
     7    26    21    1
     8    27    28   ar
     9    27    29    1
    10    21    17    1
    11    17    18    1
    12    17    19   am
    13    19    20    2
    14    19    16    1
    15    16     1    1
    16     1     2    1
    17     2     3    2
    18     2     4    1
    19     4     5    2
    20     5     6    1
    21     6    11   ar
    22     6     7   ar
    23     7     8   ar
    24     8     9   ar
    25     9    10   ar
    26     9    12    1
    27    10    11   ar
    28    10    13    1
    29    13    14    2
    30    13    15    2
@<TRIPOS>MOLECULE
ZINC06655644
 29 31 0 0 0
SMALL
GASTEIGER

@<TRIPOS>ATOM
      1 C          21.9125   39.4670   28.1091 C.3     1  UNL1        0.1822
      2 C          23.2312   38.7954   27.8245 C.ar    1  UNL1        0.0085
      3 C          23.9986   38.3102   28.8671 C.ar    1  UNL1       -0.0009
      4 C          25.2079   37.6937   28.6068 C.ar    1  UNL1        0.0111
      5 C          25.6506   37.5625   27.3025 C.ar    1  UNL1        0.0577
      6 C          24.8851   38.0537   26.2601 C.ar    1  UNL1        0.0111
      7 C          23.6728   38.6642   26.5212 C.ar    1  UNL1       -0.0009
      8 CL         27.1694   36.7882   26.9748 Cl      1  UNL1       -0.0822
      9 C          20.5197   39.0604   30.9914 C.2     1  UNL1        0.0789
     10 N          19.6032   39.5404   30.2438 N.2     1  UNL1       -0.0914
     11 O          19.6417   39.0368   28.9234 O.2     1  UNL1       -0.3768
     12 C          20.9445   38.4518   28.7199 C.3     1  UNL1        0.2259
     13 C          21.3543   38.0968   30.1695 C.3     1  UNL1        0.0956
     14 C          20.8534   37.2142   27.8648 C.2     1  UNL1        0.0919
     15 O          20.9390   36.1212   28.3727 O.co2   1  UNL1       -0.5455
     16 O          20.6772   37.3261   26.5389 O.co2   1  UNL1       -0.5455
     17 C          20.7363   39.3949   32.4448 C.3     1  UNL1        0.0448
     18 C          19.4525   39.1159   33.2291 C.3     1  UNL1        0.0061
     19 C          20.4717   40.2135   35.2288 C.3     1  UNL1        0.0000
     20 C          19.7878   38.9461   34.7122 C.3     1  UNL1        0.0004
     21 O          22.1145   40.5441   29.0262 O.3     1  UNL1       -0.3430
     22 C          21.9114   41.8386   28.4561 C.3     1  UNL1        0.1691
     23 C          23.1841   42.6389   28.5609 C.ar    1  UNL1        0.0074
     24 C          23.1292   43.9880   28.8573 C.ar    1  UNL1        0.0005
     25 C          24.2959   44.7217   28.9591 C.ar    1  UNL1        0.0294
     26 C          25.5194   44.1076   28.7526 C.ar    1  UNL1        0.1401
     27 C          25.5729   42.7575   28.4501 C.ar    1  UNL1        0.0294
     28 C          24.4052   42.0245   28.3548 C.ar    1  UNL1        0.0005
     29 F          26.6603   44.8252   28.8455 F       1  UNL1       -0.2042
@<TRIPOS>UNITY_ATOM_ATTR
16 1
charge -1
@<TRIPOS>BOND
     1    19    20    1
     2    20    18    1
     3    18    17    1
     4    17     9    1
     5     9    13    1
     6     9    10    2
     7    10    11    1
     8    11    12    1
     9    12    13    1
    10    12     1    1
    11    12    14    1
    12     1     2    1
    13     1    21    1
    14     2     7   ar
    15     2     3   ar
    16     3     4   ar
    17     4     5   ar
    18     5     6   ar
    19     5     8    1
    20     6     7   ar
    21    21    22    1
    22    22    23    1
    23    23    28   ar
    24    23    24   ar
    25    24    25   ar
    26    25    26   ar
    27    26    27   ar
    28    26    29    1
    29    27    28   ar
    30    14    15   ar
    31    14    16   ar
@<TRIPOS>MOLECULE
ZINC27292554
 28 30 0 0 0
SMALL
GASTEIGER

@<TRIPOS>ATOM
      1 N          12.0625   37.7279   27.7851 N.4     1  UNL1        0.2977
      2 C          11.6373   37.6153   29.1873 C.3     1  UNL1        0.1294
      3 C          12.6028   38.4037   30.0754 C.3     1  UNL1        0.1526
      4 N          13.9650   37.8817   29.8975 N.pl3   1  UNL1       -0.2973
      5 C          14.3902   37.9943   28.4953 C.3     1  UNL1        0.1526
      6 C          13.4247   37.2059   27.6073 C.3     1  UNL1        0.1294
      7 H          12.0695   38.7171   27.5366 H       1  UNL1        0.2091
      8 C          14.8644   38.5301   30.7469 C.ar    1  UNL1        0.0482
      9 C          16.2213   38.5375   30.4493 C.ar    1  UNL1        0.0162
     10 C          17.1077   39.1800   31.2911 C.ar    1  UNL1        0.0253
     11 C          16.6459   39.8159   32.4290 C.ar    1  UNL1        0.1430
     12 C          15.2959   39.8100   32.7284 C.ar    1  UNL1        0.0253
     13 C          14.4041   39.1687   31.8914 C.ar    1  UNL1        0.0162
     14 N          17.5988   40.5038   33.3285 N.pl3   1  UNL1        0.0577
     15 O          17.3692   41.6390   33.7056 O.2     1  UNL1       -0.1261
     16 O          18.6127   39.9348   33.6917 O.2     1  UNL1       -0.1261
     17 C          11.1165   37.0459   26.8918 C.3     1  UNL1        0.2424
     18 C          10.4085   40.0414   24.8931 C.ar    1  UNL1        0.1581
     19 N          10.6802   39.2715   25.9154 N.ar    1  UNL1       -0.1507
     20 N          10.8124   37.9119   25.7499 N.ar    1  UNL1       -0.1870
     21 C          10.6607   37.3903   24.5066 C.ar    1  UNL1        0.1507
     22 S          10.7715   35.7621   23.9894 S.2     1  UNL1       -0.0231
     23 S          10.3126   38.8621   23.5558 S.2     1  UNL1       -0.0342
     24 S          10.1925   41.7895   24.8477 S.3     1  UNL1       -0.0867
     25 C          10.4841   42.0967   23.0880 C.3     1  UNL1        0.0642
     26 C          11.9408   42.5144   22.8776 C.3     1  UNL1        0.0121
     27 C          10.7075   43.3246   20.8614 C.3     1  UNL1        0.0000
     28 C          12.0855   43.1905   21.5128 C.3     1  UNL1        0.0009
@<TRIPOS>UNITY_ATOM_ATTR
1 1
charge 1
@<TRIPOS>BOND
     1    27    28    1
     2    28    26    1
     3    26    25    1
     4    25    24    1
     5    24    18    1
     6    18    23   ar
     7    18    19   ar
     8    19    20   ar
     9    20    21   ar
    10    20    17    1
    11    21    22    2
    12    21    23   ar
    13    17     1    1
    14     1     6    1
    15     1     2    1
    16     2     3    1
    17     3     4    1
    18     4     5    1
    19     4     8    1
    20     5     6    1
    21     8    13   ar
    22     8     9   ar
    23     9    10   ar
    24    10    11   ar
    25    11    12   ar
    26    11    14    1
    27    12    13   ar
    28    14    15    2
    29    14    16    2
    30     1     7    1
@<TRIPOS>MOLECULE
ZINC28765558
 29 30 0 0 0
SMALL
GASTEIGER

@<TRIPOS>ATOM
      1 N          25.0584   39.3022   27.9614 N.am    1  UNL1       -0.2759
      2 C          23.7899   39.1157   27.5459 C.2     1  UNL1        0.2668
      3 O          23.3608   39.7489   26.6048 O.2     1  UNL1       -0.2709
      4 H          25.4067   38.7883   28.7255 H       1  UNL1        0.1554
      5 C          26.0994   41.5518   27.6342 C.ar    1  UNL1        0.0915
      6 C          27.0105   42.2783   26.7816 C.ar    1  UNL1       -0.0119
      7 C          27.5549   41.6071   25.7512 C.ar    1  UNL1        0.0051
      8 S          26.8520   39.9781   25.9054 S.2     1  UNL1       -0.0767
      9 C          25.8726   40.2176   27.3131 C.ar    1  UNL1        0.0864
     10 C          28.5263   42.1118   24.7155 C.3     1  UNL1        0.0379
     11 C          27.3371   43.7274   27.0353 C.3     1  UNL1        0.0315
     12 C          25.4511   42.1865   28.7837 C.2     1  UNL1        0.3426
     13 O          26.1012   42.4579   29.7753 O.2     1  UNL1       -0.2448
     14 O          24.1330   42.4701   28.7428 O.3     1  UNL1       -0.4454
     15 C          23.9499   44.8715   28.3821 C.3     1  UNL1        0.0513
     16 C          23.7055   43.4810   27.7923 C.3     1  UNL1        0.2089
     17 C          22.9048   38.1204   28.2508 C.3     1  UNL1        0.2447
     18 C          23.5514   37.7114   29.5757 C.3     1  UNL1        0.0575
     19 O          21.6300   38.7136   28.5061 O.3     1  UNL1       -0.4397
     20 C          20.6720   37.9114   29.0165 C.2     1  UNL1        0.3418
     21 O          20.4957   36.8015   28.5501 O.2     1  UNL1       -0.2449
     22 C          19.8731   38.3611   30.0939 C.2     1  UNL1        0.0834
     23 C          20.4380   39.0467   31.1151 C.2     1  UNL1        0.0263
     24 C          19.6098   39.5128   32.2321 C.ar    1  UNL1        0.0882
     25 C          20.1535   40.2332   33.2828 C.ar    1  UNL1        0.0556
     26 S          18.7557   40.5064   34.2736 S.2     1  UNL1       -0.0702
     27 C          17.5864   39.6902   33.2875 C.ar    1  UNL1        0.0886
     28 N          18.2987   39.2660   32.2768 N.ar    1  UNL1       -0.2427
     29 C          16.1097   39.5166   33.5329 C.3     1  UNL1        0.0594
@<TRIPOS>BOND
     1    15    16    1
     2    16    14    1
     3    14    12    1
     4    12    13    2
     5    12     5    1
     6     5     9   ar
     7     5     6   ar
     8     6     7   ar
     9     6    11    1
    10     7     8   ar
    11     7    10    1
    12     8     9   ar
    13     9     1    1
    14     1     2   am
    15     2     3    2
    16     2    17    1
    17    17    18    1
    18    17    19    1
    19    19    20    1
    20    20    21    2
    21    20    22    1
    22    22    23    2
    23    23    24    1
    24    24    28   ar
    25    24    25   ar
    26    25    26   ar
    27    26    27   ar
    28    27    28   ar
    29    27    29    1
    30     1     4    1
@<TRIPOS>MOLECULE
ZINC03597679
 32 35 0 0 0
SMALL
GASTEIGER

@<TRIPOS>ATOM
      1 C          12.3773   37.2197   27.7514 C.ar    1  UNL1        0.0758
      2 C          13.7261   37.1081   27.3936 C.ar    1  UNL1        0.0079
      3 C          14.7141   37.5330   28.2532 C.ar    1  UNL1        0.0180
      4 C          14.3828   38.0794   29.4906 C.ar    1  UNL1        0.0714
      5 C          13.0318   38.1929   29.8539 C.ar    1  UNL1        0.0585
      6 C          12.0312   37.7649   28.9877 C.ar    1  UNL1        0.0112
      7 C          12.9976   38.7989   31.1989 C.2     1  UNL1        0.2312
      8 O          12.0153   39.0632   31.8647 O.2     1  UNL1       -0.2833
      9 C          14.4233   39.0178   31.5656 C.ar    1  UNL1        0.1896
     10 N          15.1898   38.5721   30.5153 N.ar    1  UNL1       -0.2565
     11 C          16.5440   38.6522   30.5809 C.ar    1  UNL1        0.2674
     12 O          17.2421   38.2643   29.6633 O.2     1  UNL1       -0.2665
     13 C          17.1383   39.2249   31.7997 C.ar    1  UNL1        0.0772
     14 C          18.5139   39.3472   31.9579 C.ar    1  UNL1        0.0065
     15 C          19.0243   39.8912   33.1210 C.ar    1  UNL1        0.0034
     16 C          18.1788   40.3167   34.1329 C.ar    1  UNL1        0.0385
     17 C          16.8053   40.2062   33.9997 C.ar    1  UNL1        0.1564
     18 C          16.2655   39.6559   32.8260 C.ar    1  UNL1        0.1214
     19 N          14.9400   39.5330   32.6519 N.ar    1  UNL1       -0.2217
     20 C          11.3254   36.7613   26.8241 C.2     1  UNL1        0.3411
     21 O          10.5698   35.8695   27.1556 O.2     1  UNL1       -0.2449
     22 O          11.2026   37.3318   25.6096 O.3     1  UNL1       -0.4492
     23 C          10.3825   38.5269   25.5227 C.3     1  UNL1        0.1693
     24 C           9.0467   38.1819   24.8614 C.3     1  UNL1        0.0473
     25 C          11.1077   39.5833   24.6865 C.3     1  UNL1        0.0436
     26 C          10.3269   40.8980   24.7371 C.3     1  UNL1        0.0037
     27 C          10.4232   41.6008   23.3814 C.3     1  UNL1        0.0001
     28 C          11.7792   42.2998   23.2646 C.3     1  UNL1        0.0000
     29 C          10.7809   43.2553   21.1830 C.3     1  UNL1        0.0000
     30 C          12.0455   42.6548   21.8004 C.3     1  UNL1        0.0000
     31 O          15.9861   40.6261   34.9971 O.3     1  UNL1       -0.4699
     32 C          15.3314   41.8829   34.8130 C.3     1  UNL1        0.2525
@<TRIPOS>BOND
     1    29    30    1
     2    30    28    1
     3    28    27    1
     4    27    26    1
     5    26    25    1
     6    25    23    1
     7    23    24    1
     8    23    22    1
     9    22    20    1
    10    20    21    2
    11    20     1    1
    12     1     6   ar
    13     1     2   ar
    14     2     3   ar
    15     3     4   ar
    16     4    10    1
    17     4     5   ar
    18     5     6   ar
    19     5     7    1
    20     7     8    2
    21     7     9    1
    22     9    19   ar
    23     9    10   ar
    24    10    11   ar
    25    11    12    2
    26    11    13   ar
    27    13    18   ar
    28    13    14   ar
    29    14    15   ar
    30    15    16   ar
    31    16    17   ar
    32    17    18   ar
    33    17    31    1
    34    18    19   ar
    35    31    32    1
@<TRIPOS>MOLECULE
ZINC06361789
 32 34 0 0 0
SMALL
GASTEIGER

@<TRIPOS>ATOM
      1 C          10.8938   36.7783   26.3531 C.3     1  UNL1        0.2441
      2 C          11.9166   36.6797   27.4868 C.3     1  UNL1        0.2139
      3 C          11.5258   37.6406   28.6128 C.3     1  UNL1        0.1403
      4 C          13.8687   37.9656   29.1223 C.3     1  UNL1        0.1391
      5 C          14.2359   37.0014   27.9913 C.3     1  UNL1        0.2030
      6 O          13.2118   37.0327   26.9936 O.3     1  UNL1       -0.3404
      7 N          12.5540   37.5724   29.6721 N.4     1  UNL1        0.2898
      8 H          12.6112   36.6148   30.0186 H       1  UNL1        0.2080
      9 C          12.1867   38.4658   30.7920 C.3     1  UNL1        0.1844
     10 C          13.4178   38.9602   31.4299 C.1     1  UNL1       -0.0259
     11 C          14.3997   39.3544   31.9387 C.1     1  UNL1       -0.0588
     12 C          15.5972   39.8354   32.5591 C.ar    1  UNL1        0.0418
     13 C          16.8236   39.2330   32.2759 C.ar    1  UNL1        0.0082
     14 C          17.9746   39.7041   32.8737 C.ar    1  UNL1        0.0006
     15 C          17.9131   40.7648   33.7597 C.ar    1  UNL1        0.0000
     16 C          16.6996   41.3630   34.0487 C.ar    1  UNL1        0.0006
     17 C          15.5421   40.9047   33.4540 C.ar    1  UNL1        0.0082
     18 O          11.5194   37.3333   25.1942 O.3     1  UNL1       -0.4436
     19 C          10.2958   40.6499   25.2955 C.ar    1  UNL1        0.3279
     20 N          10.2568   40.9458   24.0018 N.ar    1  UNL1       -0.1411
     21 C          10.6441   40.0482   23.1035 C.ar    1  UNL1        0.3279
     22 N          11.0608   38.8511   23.4984 N.ar    1  UNL1       -0.1411
     23 C          11.0947   38.5533   24.7917 C.ar    1  UNL1        0.3276
     24 N          10.7121   39.4526   25.6903 N.ar    1  UNL1       -0.1411
     25 O           9.9060   41.5666   26.2113 O.3     1  UNL1       -0.4416
     26 C           9.6356   41.0904   27.5313 C.3     1  UNL1        0.2351
     27 C           9.2759   42.0613   29.7425 C.2     1  UNL1       -0.0011
     28 C           9.5964   42.2549   28.4871 C.2     1  UNL1        0.0208
     29 O          10.6096   40.3517   21.7854 O.3     1  UNL1       -0.4416
     30 C          11.7484   41.0247   21.2448 C.3     1  UNL1        0.2351
     31 C          11.2947   42.2301   20.4622 C.2     1  UNL1        0.0208
     32 C          10.7603   43.2517   21.0841 C.2     1  UNL1       -0.0011
@<TRIPOS>UNITY_ATOM_ATTR
7 1
charge 1
@<TRIPOS>BOND
     1    27    28    2
     2    28    26    1
     3    26    25    1
     4    25    19    1
     5    19    24   ar
     6    19    20   ar
     7    20    21   ar
     8    21    22   ar
     9    21    29    1
    10    22    23   ar
    11    23    24   ar
    12    23    18    1
    13    18     1    1
    14     1     2    1
    15     2     6    1
    16     2     3    1
    17     3     7    1
    18     4     5    1
    19     4     7    1
    20     5     6    1
    21     9    10    1
    22     9     7    1
    23    10    11    3
    24    11    12    1
    25    12    17   ar
    26    12    13   ar
    27    13    14   ar
    28    14    15   ar
    29    15    16   ar
    30    16    17   ar
    31    29    30    1
    32    30    31    1
    33    31    32    2
    34     7     8    1
@<TRIPOS>MOLECULE
ZINC29606397
 30 32 0 0 0
SMALL
GASTEIGER

@<TRIPOS>ATOM
      1 C          21.0829   51.2605   22.5385 C.2     1  UNL1        0.0108
      2 C          21.9561   50.2724   22.8091 C.2     1  UNL1       -0.0018
      3 C          20.7728   51.6044   21.1471 C.ar    1  UNL1        0.1072
      4 N          19.7890   51.1664   20.3854 N.ar    1  UNL1       -0.2386
      5 C          19.6233   51.5697   19.1176 C.ar    1  UNL1        0.0878
      6 C          18.6166   51.1794   18.2010 C.ar    1  UNL1        0.0196
      7 C          18.5880   51.6865   16.9401 C.ar    1  UNL1        0.0016
      8 C          19.5360   52.5999   16.4994 C.ar    1  UNL1        0.0006
      9 C          20.5397   53.0037   17.3604 C.ar    1  UNL1        0.0080
     10 C          20.5748   52.5026   18.6385 C.ar    1  UNL1        0.0485
     11 S          21.6310   52.7244   20.0496 S.2     1  UNL1       -0.0668
     12 C          22.4414   49.4012   21.7252 C.ar    1  UNL1       -0.0001
     13 C          23.7419   49.5491   21.2341 C.ar    1  UNL1        0.0017
     14 C          24.1905   48.7267   20.2221 C.ar    1  UNL1        0.0241
     15 C          23.3537   47.7637   19.6860 C.ar    1  UNL1        0.1429
     16 C          22.0634   47.6144   20.1638 C.ar    1  UNL1        0.0241
     17 C          21.6020   48.4260   21.1786 C.ar    1  UNL1        0.0017
     18 N          23.8410   46.8890   18.5956 N.pl3   1  UNL1        0.0577
     19 O          24.6062   45.9746   18.8445 O.2     1  UNL1       -0.1261
     20 O          23.4769   47.0838   17.4498 O.2     1  UNL1       -0.1261
     21 C          20.4241   52.0134   23.6655 C.3     1  UNL1        0.1135
     22 N          20.4098   51.2099   26.0049 N.am    1  UNL1       -0.2793
     23 C          19.9932   51.0422   24.7341 C.2     1  UNL1        0.2301
     24 O          19.2715   50.1096   24.4507 O.2     1  UNL1       -0.2745
     25 C          21.2816   52.3364   26.3473 C.3     1  UNL1        0.0935
     26 C          22.4179   51.8467   27.2472 C.3     1  UNL1        0.0233
     27 C          19.9910   50.2657   27.0437 C.3     1  UNL1        0.0934
     28 C          18.8231   50.8607   27.8330 C.3     1  UNL1        0.0215
     29 C          19.8350   49.1628   29.3613 C.3     1  UNL1        0.0001
     30 C          18.8608   50.3390   29.2708 C.3     1  UNL1        0.0018
@<TRIPOS>BOND
     1    29    30    1
     2    30    28    1
     3    28    27    1
     4    27    22    1
     5    22    25    1
     6    22    23   am
     7    25    26    1
     8    23    24    2
     9    23    21    1
    10    21     1    1
    11     1     2    2
    12     1     3    1
    13     2    12    1
    14    12    17   ar
    15    12    13   ar
    16    13    14   ar
    17    14    15   ar
    18    15    16   ar
    19    15    18    1
    20    16    17   ar
    21    18    19    2
    22    18    20    2
    23     3    11   ar
    24     3     4   ar
    25     4     5   ar
    26     5    10   ar
    27     5     6   ar
    28     6     7   ar
    29     7     8   ar
    30     8     9   ar
    31     9    10   ar
    32    10    11   ar
@<TRIPOS>MOLECULE
ZINC24615855
 29 31 0 0 0
SMALL
GASTEIGER

@<TRIPOS>ATOM
      1 C          24.8429   37.6888   29.4388 C.ar    1  UNL1        0.1631
      2 C          23.4610   37.8530   29.4102 C.ar    1  UNL1        0.1898
      3 C          22.9337   39.0615   28.9879 C.ar    1  UNL1        0.1528
      4 C          23.7872   40.0789   28.5922 C.ar    1  UNL1        0.1140
      5 C          25.1644   39.8392   28.6590 C.ar    1  UNL1        0.2382
      6 N          25.6382   38.6803   29.0691 N.ar    1  UNL1       -0.1996
      7 F          26.0250   40.8151   28.2952 F       1  UNL1       -0.1818
      8 N          23.3730   41.3139   28.1032 N.pl3   1  UNL1       -0.3033
      9 C          22.0723   41.7940   28.5490 C.3     1  UNL1        0.1166
     10 C          20.9752   40.8408   28.0443 C.3     1  UNL1        0.1774
     11 S          21.1823   39.2819   28.9648 S.O2    1  UNL1        0.0139
     12 O          20.8134   39.4572   30.3258 O.2     1  UNL1       -0.1685
     13 O          20.6819   38.1888   28.2072 O.2     1  UNL1       -0.1685
     14 F          22.6445   36.8456   29.7893 F       1  UNL1       -0.1998
     15 C          24.4090   42.3354   28.3065 C.3     1  UNL1        0.0730
     16 C          23.8691   43.4338   29.2247 C.3     1  UNL1        0.0197
     17 C          24.9480   44.4976   29.4365 C.3     1  UNL1        0.0017
     18 C          25.3363   45.1058   28.0874 C.3     1  UNL1        0.0001
     19 C          25.8763   44.0075   27.1692 C.3     1  UNL1        0.0017
     20 C          24.7973   42.9436   26.9574 C.3     1  UNL1        0.0197
     21 N          25.3909   36.4766   29.8574 N.pl3   1  UNL1       -0.2914
     22 C          26.4511   36.0341   28.9419 C.3     1  UNL1        0.0922
     23 C          27.4304   35.1308   29.6942 C.3     1  UNL1        0.0215
     24 C          26.8106   32.9527   30.7499 C.3     1  UNL1        0.0001
     25 C          27.0833   33.6654   29.4237 C.3     1  UNL1        0.0018
     26 C          25.8913   36.5730   31.2351 C.3     1  UNL1        0.0922
     27 C          24.9101   35.8811   32.1836 C.3     1  UNL1        0.0215
     28 C          25.6530   35.4219   33.4398 C.3     1  UNL1        0.0018
     29 C          26.8967   36.2898   33.6427 C.3     1  UNL1        0.0001
@<TRIPOS>BOND
     1    24    25    1
     2    25    23    1
     3    23    22    1
     4    22    21    1
     5    21    26    1
     6    21     1    1
     7    26    27    1
     8    27    28    1
     9    28    29    1
    10     1     6   ar
    11     1     2   ar
    12     2     3   ar
    13     2    14    1
    14     3    11    1
    15     3     4   ar
    16     4     5   ar
    17     4     8    1
    18     5     6   ar
    19     5     7    1
    20     8     9    1
    21     8    15    1
    22     9    10    1
    23    10    11    1
    24    11    12    2
    25    11    13    2
    26    15    20    1
    27    15    16    1
    28    16    17    1
    29    17    18    1
    30    18    19    1
    31    19    20    1
@<TRIPOS>MOLECULE
ZINC09431008
 29 31 0 0 0
SMALL
GASTEIGER

@<TRIPOS>ATOM
      1 C          23.9240   39.9959   26.4841 C.2     1  UNL1        0.0395
      2 C          24.4669   41.0165   27.1923 C.2     1  UNL1        0.1138
      3 S          23.6211   40.9214   28.7677 S.3     1  UNL1       -0.0581
      4 C          22.5695   39.4860   28.3673 C.3     1  UNL1        0.2296
      5 N          22.9677   39.1850   27.0049 N.pl3   1  UNL1       -0.2793
      6 C          22.3776   38.0816   26.2429 C.3     1  UNL1        0.1149
      7 N          22.6957   38.4052   29.3301 N.pl3   1  UNL1       -0.1786
      8 N          21.5205   38.0827   29.9906 N.2     1  UNL1       -0.1622
      9 C          20.3885   38.7004   29.7672 C.2     1  UNL1        0.2033
     10 S          20.8010   39.9081   28.5123 S.3     1  UNL1       -0.0386
     11 C          23.9013   37.7462   29.5705 C.ar    1  UNL1        0.0724
     12 C          24.7316   37.4033   28.5098 C.ar    1  UNL1        0.0164
     13 C          25.9272   36.7565   28.7522 C.ar    1  UNL1        0.0013
     14 C          26.2933   36.4390   30.0476 C.ar    1  UNL1        0.0001
     15 C          25.4671   36.7734   31.1052 C.ar    1  UNL1        0.0013
     16 C          24.2729   37.4257   30.8711 C.ar    1  UNL1        0.0164
     17 C          19.0844   38.4558   30.3944 C.2     1  UNL1        0.3668
     18 O          18.0638   38.5885   29.7469 O.2     1  UNL1       -0.2426
     19 O          19.0180   38.0838   31.6894 O.3     1  UNL1       -0.4440
     20 C          19.2024   39.1249   32.6846 C.3     1  UNL1        0.2090
     21 C          17.8364   39.6112   33.1729 C.3     1  UNL1        0.0513
     22 C          25.4638   41.9365   26.7843 C.2     1  UNL1        0.3480
     23 O          26.6252   41.5808   26.7070 O.2     1  UNL1       -0.2443
     24 O          25.1258   43.2076   26.4813 O.3     1  UNL1       -0.4451
     25 C          25.4603   44.2139   27.4391 C.3     1  UNL1        0.2089
     26 C          24.1820   44.7363   28.0977 C.3     1  UNL1        0.0513
     27 C          24.3966   39.7540   25.0738 C.3     1  UNL1        0.0419
     28 C          26.6510   39.2805   24.1063 C.3     1  UNL1        0.0004
     29 C          25.5876   38.7936   25.0926 C.3     1  UNL1        0.0060
@<TRIPOS>BOND
     1    28    29    1
     2    29    27    1
     3    27     1    1
     4     1     5    1
     5     1     2    2
     6     2     3    1
     7     2    22    1
     8     3     4    1
     9     4    10    1
    10     4     5    1
    11     4     7    1
    12     5     6    1
    13     7     8    1
    14     7    11    1
    15     8     9    2
    16     9    10    1
    17     9    17    1
    18    17    18    2
    19    17    19    1
    20    19    20    1
    21    20    21    1
    22    11    16   ar
    23    11    12   ar
    24    12    13   ar
    25    13    14   ar
    26    14    15   ar
    27    15    16   ar
    28    22    23    2
    29    22    24    1
    30    24    25    1
    31    25    26    1
@<TRIPOS>MOLECULE
ZINC11865509
 31 33 0 0 0
SMALL
GASTEIGER

@<TRIPOS>ATOM
      1 C          24.3177   38.6073   27.7568 C.ar    1  UNL1       -0.0098
      2 C          25.2665   38.4056   26.8056 C.ar    1  UNL1        0.0782
      3 C          26.3519   37.5448   27.0700 C.ar    1  UNL1        0.3456
      4 O          27.1960   37.3727   26.2092 O.2     1  UNL1       -0.2445
      5 O          26.4786   36.9108   28.2461 O.2     1  UNL1       -0.4210
      6 C          25.5706   37.0680   29.2333 C.ar    1  UNL1        0.1510
      7 C          24.4599   37.9073   29.0345 C.ar    1  UNL1        0.0655
      8 C          23.5181   38.0767   30.0611 C.ar    1  UNL1        0.1510
      9 C          23.6878   37.4037   31.2580 C.ar    1  UNL1        0.0335
     10 C          24.7809   36.5737   31.4437 C.ar    1  UNL1       -0.0158
     11 C          25.7169   36.4043   30.4432 C.ar    1  UNL1        0.0335
     12 C          24.9508   35.8476   32.7533 C.3     1  UNL1        0.0312
     13 C          23.1474   39.5217   27.5011 C.3     1  UNL1        0.0268
     14 C          23.6596   40.8950   27.0621 C.3     1  UNL1        0.0047
     15 C          22.0748   42.1224   28.5534 C.3     1  UNL1        0.0000
     16 C          23.5500   41.8774   28.2299 C.3     1  UNL1        0.0003
     17 O          22.4465   38.8897   29.8793 O.3     1  UNL1       -0.4210
     18 C          21.2290   38.3120   29.9035 C.2     1  UNL1        0.3459
     19 O          20.9692   37.4096   29.1324 O.2     1  UNL1       -0.2445
     20 C          20.2122   38.7752   30.8658 C.ar    1  UNL1        0.0823
     21 C          20.5998   39.4799   32.0089 C.ar    1  UNL1        0.0467
     22 C          19.6446   39.9133   32.9089 C.ar    1  UNL1        0.1757
     23 C          18.2972   39.6488   32.6775 C.ar    1  UNL1        0.2061
     24 C          17.9083   38.9466   31.5397 C.ar    1  UNL1        0.1757
     25 C          18.8591   38.5104   30.6366 C.ar    1  UNL1        0.0467
     26 O          16.5915   38.6893   31.3172 O.3     1  UNL1       -0.4683
     27 C          16.1378   38.7524   29.9637 C.3     1  UNL1        0.2526
     28 O          17.3603   40.0765   33.5638 O.3     1  UNL1       -0.4654
     29 C          16.6602   41.2789   33.2381 C.3     1  UNL1        0.2528
     30 O          20.0210   40.5991   34.0215 O.3     1  UNL1       -0.4683
     31 C          20.3763   39.8271   35.1703 C.3     1  UNL1        0.2526
@<TRIPOS>BOND
     1    15    16    1
     2    16    14    1
     3    14    13    1
     4    13     1    1
     5     1     7   ar
     6     1     2   ar
     7     2     3   ar
     8     3     4    2
     9     3     5   ar
    10     5     6   ar
    11     6    11   ar
    12     6     7   ar
    13     7     8   ar
    14     8     9   ar
    15     8    17    1
    16     9    10   ar
    17    10    11   ar
    18    10    12    1
    19    17    18    1
    20    18    19    2
    21    18    20    1
    22    20    25   ar
    23    20    21   ar
    24    21    22   ar
    25    22    23   ar
    26    22    30    1
    27    23    24   ar
    28    23    28    1
    29    24    25   ar
    30    24    26    1
    31    26    27    1
    32    28    29    1
    33    30    31    1
@<TRIPOS>MOLECULE
ZINC14675241
 30 32 0 0 0
SMALL
GASTEIGER

@<TRIPOS>ATOM
      1 N          19.7581   38.7709   31.4485 N.am    1  UNL1       -0.2229
      2 C          21.0827   38.7066   31.6727 C.2     1  UNL1        0.2551
      3 O          21.6250   38.8158   32.7536 O.2     1  UNL1       -0.2695
      4 C          21.7687   38.4798   30.3804 C.ar    1  UNL1        0.0584
      5 C          23.0948   38.3334   30.0050 C.ar    1  UNL1        0.0049
      6 C          23.4168   38.1279   28.6743 C.ar    1  UNL1        0.0066
      7 C          22.4122   38.0673   27.7083 C.ar    1  UNL1        0.0758
      8 C          21.0724   38.2193   28.0780 C.ar    1  UNL1        0.0111
      9 C          20.7486   38.4196   29.4089 C.ar    1  UNL1        0.0586
     10 C          19.4795   38.6115   30.1423 C.2     1  UNL1        0.2551
     11 O          18.3702   38.6232   29.6479 O.2     1  UNL1       -0.2695
     12 C          22.7656   37.8479   26.2889 C.2     1  UNL1        0.3415
     13 O          22.0640   37.1446   25.5902 O.2     1  UNL1       -0.2449
     14 O          23.8654   38.4280   25.7713 O.3     1  UNL1       -0.4412
     15 C          23.7888   39.8498   25.4867 C.3     1  UNL1        0.2300
     16 C          24.2652   40.1099   24.0562 C.3     1  UNL1        0.0560
     17 C          24.6658   40.6035   26.4529 C.2     1  UNL1        0.2128
     18 O          25.8266   40.2832   26.5947 O.2     1  UNL1       -0.2875
     19 C          24.1134   41.7284   27.2246 C.ar    1  UNL1        0.0391
     20 C          22.9462   41.5590   27.9766 C.ar    1  UNL1        0.0030
     21 C          22.4375   42.6156   28.7016 C.ar    1  UNL1        0.0010
     22 C          23.0785   43.8422   28.6869 C.ar    1  UNL1        0.0114
     23 C          24.2346   44.0186   27.9451 C.ar    1  UNL1        0.0578
     24 C          24.7559   42.9701   27.2142 C.ar    1  UNL1        0.0144
     25 CL         25.0296   45.5619   27.9340 Cl      1  UNL1       -0.0822
     26 C          18.7508   38.9868   32.4902 C.3     1  UNL1        0.1015
     27 C          18.9909   40.3420   33.1586 C.3     1  UNL1        0.0220
     28 C          19.3048   38.6808   34.9983 C.3     1  UNL1        0.0001
     29 C          19.0630   40.1568   34.6756 C.3     1  UNL1        0.0017
     30 C          20.2118   40.9965   35.2378 C.3     1  UNL1        0.0001
@<TRIPOS>BOND
     1    28    29    1
     2    29    30    1
     3    29    27    1
     4    27    26    1
     5    26     1    1
     6     1    10   am
     7     1     2   am
     8     2     3    2
     9     2     4    1
    10     4     9   ar
    11     4     5   ar
    12     5     6   ar
    13     6     7   ar
    14     7     8   ar
    15     7    12    1
    16     8     9   ar
    17     9    10    1
    18    10    11    2
    19    12    13    2
    20    12    14    1
    21    14    15    1
    22    15    16    1
    23    15    17    1
    24    17    18    2
    25    17    19    1
    26    19    24   ar
    27    19    20   ar
    28    20    21   ar
    29    21    22   ar
    30    22    23   ar
    31    23    24   ar
    32    23    25    1
@<TRIPOS>MOLECULE
ZINC18051505
 29 30 0 0 0
SMALL
GASTEIGER

@<TRIPOS>ATOM
      1 C          27.8079   37.7475   27.5951 C.2     1  UNL1        0.0175
      2 C          26.7765   38.6333   27.7178 C.ar    1  UNL1        0.0874
      3 C          25.4565   38.4209   28.2147 C.ar    1  UNL1        0.2673
      4 O          25.0937   37.3284   28.6129 O.2     1  UNL1       -0.2664
      5 N          24.6461   39.4668   28.2287 N.ar    1  UNL1       -0.2892
      6 C          25.0785   40.6817   27.7706 C.ar    1  UNL1        0.1053
      7 C          24.3683   41.8913   27.7041 C.2     1  UNL1        0.1250
      8 S          26.7183   40.3683   27.2990 S.2     1  UNL1       -0.0641
      9 C          26.7324   35.7798   25.4898 C.3     1  UNL1        0.0316
     10 C          27.1015   35.4160   26.9049 C.ar    1  UNL1       -0.0153
     11 C          26.9825   34.1301   27.3692 C.ar    1  UNL1        0.0032
     12 C          27.3215   33.8545   28.6565 C.ar    1  UNL1        0.0351
     13 S          27.8324   35.3926   29.2718 S.2     1  UNL1       -0.0867
     14 C          27.5823   36.3677   27.7988 C.ar    1  UNL1        0.0262
     15 C          23.0057   41.9465   28.1409 C.1     1  UNL1        0.1053
     16 N          21.9248   41.9904   28.4875 N.1     1  UNL1       -0.1907
     17 C          24.9954   43.0486   27.2083 C.2     1  UNL1        0.1837
     18 O          25.1954   43.1678   26.0153 O.2     1  UNL1       -0.2906
     19 C          25.4194   44.1406   28.1563 C.3     1  UNL1        0.0563
     20 C          24.4215   45.2980   28.0799 C.3     1  UNL1        0.0077
     21 C          26.8119   44.6414   27.7676 C.3     1  UNL1        0.0077
     22 C          25.4551   43.5914   29.5839 C.3     1  UNL1        0.0077
     23 C          23.2782   39.3226   28.7328 C.3     1  UNL1        0.1101
     24 C          22.4381   38.5494   27.7143 C.3     1  UNL1        0.0362
     25 C          20.9529   38.7414   28.0275 C.3     1  UNL1        0.1116
     26 C          20.4319   37.5287   28.7545 C.2     1  UNL1        0.3172
     27 O          20.4835   36.4413   28.2301 O.2     1  UNL1       -0.2501
     28 O          19.9104   37.6563   29.9849 O.3     1  UNL1       -0.4444
     29 C          20.0149   38.9612   30.6131 C.3     1  UNL1        0.2556
@<TRIPOS>BOND
     1     9    10    1
     2    10    14   ar
     3    10    11   ar
     4    11    12   ar
     5    12    13   ar
     6    13    14   ar
     7    14     1    1
     8     1     2    2
     9     2     8   ar
    10     2     3   ar
    11     3     4    2
    12     3     5   ar
    13     5     6   ar
    14     5    23    1
    15     6     7    2
    16     6     8   ar
    17     7    15    1
    18     7    17    1
    19    15    16    3
    20    17    18    2
    21    17    19    1
    22    19    20    1
    23    19    21    1
    24    19    22    1
    25    23    24    1
    26    24    25    1
    27    25    26    1
    28    26    27    2
    29    26    28    1
    30    28    29    1
@<TRIPOS>MOLECULE
ZINC21326654
 32 35 0 0 0
SMALL
GASTEIGER

@<TRIPOS>ATOM
      1 C          22.6078   39.2752   28.2923 C.ar    1  UNL1        0.1764
      2 C          23.5425   38.4696   29.0950 C.ar    1  UNL1        0.0304
      3 C          23.1294   37.4049   29.8883 C.ar    1  UNL1        0.0019
      4 C          24.0666   36.6929   30.6069 C.ar    1  UNL1        0.0001
      5 C          25.4137   37.0240   30.5425 C.ar    1  UNL1        0.0002
      6 C          25.8449   38.0725   29.7579 C.ar    1  UNL1        0.0048
      7 C          24.9149   38.8028   29.0248 C.ar    1  UNL1        0.0593
      8 C          25.2876   39.9343   28.1644 C.ar    1  UNL1        0.2766
      9 O          26.4499   40.2806   28.0593 O.2     1  UNL1       -0.2655
     10 N          24.3118   40.5803   27.4934 N.ar    1  UNL1       -0.2119
     11 N          23.0749   40.2610   27.5643 N.ar    1  UNL1       -0.1599
     12 C          21.1625   38.9811   28.3111 C.2     1  UNL1        0.3612
     13 O          20.6552   38.3688   27.3924 O.2     1  UNL1       -0.2431
     14 O          20.4049   39.3914   29.3472 O.3     1  UNL1       -0.4394
     15 C          19.7777   38.3601   30.1543 C.3     1  UNL1        0.2354
     16 C          17.5446   39.5741   32.9583 C.ar    1  UNL1        0.0754
     17 C          18.4878   40.0594   33.8666 C.ar    1  UNL1        0.0064
     18 C          19.8317   39.9856   33.5658 C.ar    1  UNL1        0.0000
     19 C          20.2464   39.4326   32.3668 C.ar    1  UNL1       -0.0007
     20 C          19.3171   38.9549   31.4601 C.ar    1  UNL1        0.0215
     21 C          17.9698   39.0171   31.7508 C.ar    1  UNL1        0.0057
     22 C          16.1034   39.6494   33.2739 C.2     1  UNL1        0.3413
     23 O          15.6549   39.0285   34.2167 O.2     1  UNL1       -0.2449
     24 C          14.2136   39.7225   31.8171 C.3     1  UNL1        0.2560
     25 O          15.2865   40.4066   32.5163 O.3     1  UNL1       -0.4413
     26 C          24.6887   41.7076   26.6371 C.3     1  UNL1        0.1571
     27 C          24.7382   42.9690   27.4602 C.ar    1  UNL1        0.0022
     28 C          25.9350   43.6414   27.6231 C.ar    1  UNL1       -0.0023
     29 C          25.9795   44.8011   28.3741 C.ar    1  UNL1       -0.0003
     30 C          24.8293   45.2827   28.9709 C.ar    1  UNL1       -0.0000
     31 C          23.6336   44.6074   28.8123 C.ar    1  UNL1       -0.0003
     32 C          23.5880   43.4506   28.0569 C.ar    1  UNL1       -0.0023
@<TRIPOS>BOND
     1    24    25    1
     2    25    22    1
     3    22    23    2
     4    22    16    1
     5    16    21   ar
     6    16    17   ar
     7    17    18   ar
     8    18    19   ar
     9    19    20   ar
    10    20    21   ar
    11    20    15    1
    12    15    14    1
    13    14    12    1
    14    12    13    2
    15    12     1    1
    16     1    11   ar
    17     1     2   ar
    18     2     7   ar
    19     2     3   ar
    20     3     4   ar
    21     4     5   ar
    22     5     6   ar
    23     6     7   ar
    24     7     8   ar
    25     8     9    2
    26     8    10   ar
    27    10    11   ar
    28    10    26    1
    29    26    27    1
    30    27    32   ar
    31    27    28   ar
    32    28    29   ar
    33    29    30   ar
    34    30    31   ar
    35    31    32   ar
@<TRIPOS>MOLECULE
ZINC21954877
 29 31 0 0 0
SMALL
GASTEIGER

@<TRIPOS>ATOM
      1 C          21.1505   38.9906   28.9956 C.2     1  UNL1        0.0827
      2 O          20.7967   39.9821   28.3869 O.2     1  UNL1       -0.3129
      3 C          24.8824   39.4105   28.9808 C.ar    1  UNL1        0.1721
      4 C          23.5401   39.6467   28.7565 C.ar    1  UNL1        0.0413
      5 C          22.5858   38.7432   29.2324 C.ar    1  UNL1        0.0185
      6 C          22.9937   37.6082   29.9379 C.ar    1  UNL1        0.0005
      7 C          24.3347   37.3755   30.1526 C.ar    1  UNL1        0.0192
      8 C          25.2827   38.2731   29.6804 C.ar    1  UNL1        0.1687
      9 C          26.0740   40.2783   27.1145 C.3     1  UNL1        0.2526
     10 O          25.8136   40.2879   28.5196 O.3     1  UNL1       -0.4684
     11 O          26.6029   38.0424   29.9001 O.3     1  UNL1       -0.4687
     12 C          27.3002   37.2765   28.9156 C.3     1  UNL1        0.2526
     13 C          24.7730   36.1469   30.9075 C.3     1  UNL1        0.0555
     14 C          24.7618   36.4355   32.3865 C.2     1  UNL1       -0.0213
     15 C          25.2108   35.5411   33.2319 C.2     1  UNL1       -0.0046
     16 N          20.2316   38.1175   29.4539 N.am    1  UNL1       -0.5887
     17 C          19.3635   38.4930   30.4747 C.ar    1  UNL1        0.0183
     18 N          19.6195   38.8259   31.7294 N.ar    1  UNL1       -0.1652
     19 N          18.7041   39.1444   32.5366 N.ar    1  UNL1       -0.1363
     20 C          17.4291   39.1651   32.1771 C.ar    1  UNL1        0.1580
     21 S          17.5803   38.6554   30.4673 S.2     1  UNL1       -0.0641
     22 S          15.9939   39.5706   33.1155 S.3     1  UNL1       -0.0819
     23 C          14.9423   40.4699   31.9425 C.3     1  UNL1        0.0904
     24 C          13.8747   39.5465   31.4148 C.ar    1  UNL1       -0.0109
     25 C          12.5885   39.6193   31.9158 C.ar    1  UNL1       -0.0034
     26 C          11.6092   38.7719   31.4321 C.ar    1  UNL1       -0.0003
     27 C          11.9163   37.8517   30.4473 C.ar    1  UNL1       -0.0000
     28 C          13.2025   37.7792   29.9460 C.ar    1  UNL1       -0.0003
     29 C          14.1818   38.6261   30.4300 C.ar    1  UNL1       -0.0034
@<TRIPOS>UNITY_ATOM_ATTR
16 1
charge -1
@<TRIPOS>BOND
     1     9    10    1
     2    10     3    1
     3     3     8   ar
     4     3     4   ar
     5     4     5   ar
     6     5     6   ar
     7     5     1    1
     8     6     7   ar
     9     7     8   ar
    10     7    13    1
    11     8    11    1
    12    11    12    1
    13    13    14    1
    14    14    15    2
    15     1     2    2
    16     1    16    1
    17    16    17    1
    18    17    21   ar
    19    17    18   ar
    20    18    19   ar
    21    19    20   ar
    22    20    21   ar
    23    20    22    1
    24    22    23    1
    25    23    24    1
    26    24    29   ar
    27    24    25   ar
    28    25    26   ar
    29    26    27   ar
    30    27    28   ar
    31    28    29   ar
@<TRIPOS>MOLECULE
ZINC25347518
 34 38 0 0 0
SMALL
GASTEIGER

@<TRIPOS>ATOM
      1 C          23.4556   42.6313   27.9763 C.3     1  UNL1        0.0314
      2 C          24.8537   42.1047   28.1737 C.ar    1  UNL1       -0.0152
      3 C          25.9149   42.8718   27.8837 C.ar    1  UNL1        0.0052
      4 S          27.3047   41.8260   28.2761 S.2     1  UNL1       -0.0725
      5 C          26.4226   40.3868   28.8190 C.ar    1  UNL1        0.1143
      6 C          25.0676   40.7601   28.6799 C.ar    1  UNL1        0.0515
      7 C          24.1206   39.7677   29.0541 C.ar    1  UNL1        0.1316
      8 N          24.5528   38.5989   29.4995 N.ar    1  UNL1       -0.2106
      9 C          25.8392   38.3160   29.5988 C.ar    1  UNL1        0.1969
     10 N          26.7647   39.1952   29.2672 N.ar    1  UNL1       -0.2187
     11 C          25.9293   44.2817   27.3519 C.3     1  UNL1        0.0379
     12 N          22.7644   40.0229   28.9594 N.pl3   1  UNL1       -0.3180
     13 H          22.3825   40.8217   29.3898 H       1  UNL1        0.1482
     14 C          21.8962   39.1044   28.2185 C.3     1  UNL1        0.0899
     15 C          20.4574   39.2472   28.7191 C.3     1  UNL1        0.0431
     16 C          20.1244   38.0819   29.6530 C.3     1  UNL1        0.1011
     17 N          19.6485   38.6051   30.9361 N.am    1  UNL1       -0.2469
     18 C          20.4579   39.0381   31.9267 C.2     1  UNL1        0.2107
     19 O          21.6698   39.0679   31.9262 O.2     1  UNL1       -0.2763
     20 C          19.5327   39.4766   33.0330 C.3     1  UNL1       -0.0137
     21 C          19.7299   40.9627   33.3603 C.3     1  UNL1       -0.0115
     22 C          19.5054   41.0419   34.8928 C.3     1  UNL1       -0.0012
     23 C          20.1441   39.7256   35.4033 C.3     1  UNL1       -0.0012
     24 C          19.7885   38.6853   34.3179 C.3     1  UNL1       -0.0115
     25 N          18.1889   39.2244   32.5086 N.am    1  UNL1       -0.6124
     26 C          18.3566   38.7186   31.2703 C.2     1  UNL1        0.1376
     27 O          17.4388   38.3984   30.5408 O.2     1  UNL1       -0.2967
     28 C          26.2585   36.9612   30.1087 C.3     1  UNL1        0.1720
     29 N          25.9155   36.8463   31.5324 N.4     1  UNL1        0.2817
     30 C          24.9596   35.7327   31.7615 C.3     1  UNL1        0.1060
     31 C          25.1273   35.4264   33.2710 C.3     1  UNL1        0.0670
     32 C          26.6446   35.6188   33.4963 C.3     1  UNL1        0.0670
     33 C          27.1111   36.5240   32.3413 C.3     1  UNL1        0.1060
     34 H          25.5135   37.7438   31.8029 H       1  UNL1        0.2072
@<TRIPOS>UNITY_ATOM_ATTR
25 1
charge -1
29 1
charge 1
@<TRIPOS>BOND
     1     1     2    1
     2     2     6   ar
     3     2     3   ar
     4     3     4   ar
     5     3    11    1
     6     4     5   ar
     7     5    10   ar
     8     5     6   ar
     9     6     7   ar
    10     7     8   ar
    11     7    12    1
    12     8     9   ar
    13     9    10   ar
    14     9    28    1
    15    28    29    1
    16    29    33    1
    17    29    30    1
    18    30    31    1
    19    31    32    1
    20    32    33    1
    21    12    14    1
    22    14    15    1
    23    15    16    1
    24    16    17    1
    25    17    26   am
    26    17    18   am
    27    18    19    2
    28    18    20    1
    29    20    24    1
    30    20    21    1
    31    20    25    1
    32    21    22    1
    33    22    23    1
    34    23    24    1
    35    25    26    1
    36    26    27    2
    37    29    34    1
    38    12    13    1
@<TRIPOS>MOLECULE
ZINC24704410
 33 35 0 0 0
SMALL
GASTEIGER

@<TRIPOS>ATOM
      1 C          12.0410   37.4085   28.2788 C.3     1  UNL1        0.1687
      2 C           8.5479   37.7332   25.1512 C.3     1  UNL1       -0.0083
      3 C          10.0696   37.8919   25.1683 C.3     1  UNL1        0.0062
      4 C          10.5417   38.3507   26.5337 C.2     1  UNL1        0.2148
      5 O          10.2490   39.3809   27.1017 O.2     1  UNL1       -0.2759
      6 N          11.3560   37.3758   26.9842 N.am    1  UNL1       -0.2388
      7 C          11.4570   36.3720   26.1056 C.2     1  UNL1        0.1382
      8 O          12.1313   35.3778   26.2901 O.2     1  UNL1       -0.2967
      9 N          10.7289   36.5859   24.9948 N.am    1  UNL1       -0.6092
     10 C          10.5126   38.8558   24.0981 C.ar    1  UNL1       -0.0332
     11 C          11.1686   40.0220   24.4503 C.ar    1  UNL1       -0.0047
     12 C          11.5812   40.9065   23.4754 C.ar    1  UNL1        0.0099
     13 C          11.3260   40.6277   22.1312 C.ar    1  UNL1        0.0684
     14 C          10.6589   39.4515   21.7832 C.ar    1  UNL1        0.0099
     15 C          10.2566   38.5733   22.7680 C.ar    1  UNL1       -0.0047
     16 C          11.7470   41.5437   21.1142 C.1     1  UNL1        0.1004
     17 N          12.0810   42.2704   20.3074 N.1     1  UNL1       -0.1908
     18 C          13.4857   37.7852   28.0733 C.2     1  UNL1        0.1993
     19 O          13.9864   37.6928   26.9709 O.2     1  UNL1       -0.2890
     20 C          14.2587   38.2402   29.1642 C.ar    1  UNL1        0.0656
     21 C          15.6370   38.4095   29.2526 C.ar    1  UNL1        0.0096
     22 C          16.1317   38.8754   30.4420 C.ar    1  UNL1        0.0044
     23 C          15.2718   39.1344   31.4645 C.ar    1  UNL1        0.0271
     24 S          13.7237   38.7404   30.7911 S.2     1  UNL1       -0.0867
     25 C          15.5887   39.6418   32.8477 C.3     1  UNL1        0.1229
     26 N          16.9935   39.3668   33.1589 N.am    1  UNL1       -0.3000
     27 C          17.7867   40.3531   33.6220 C.2     1  UNL1        0.2218
     28 O          17.3375   41.4684   33.7812 O.2     1  UNL1       -0.2751
     29 H          17.3582   38.4616   33.0297 H       1  UNL1        0.1498
     30 C          19.2320   40.0702   33.9421 C.3     1  UNL1        0.0689
     31 C          20.0250   39.9329   32.6408 C.3     1  UNL1        0.0091
     32 C          19.8059   41.2217   34.7700 C.3     1  UNL1        0.0091
     33 C          19.3322   38.7688   34.7402 C.3     1  UNL1        0.0091
@<TRIPOS>UNITY_ATOM_ATTR
9 1
charge -1
@<TRIPOS>BOND
     1     2     3    1
     2     3     9    1
     3     3     4    1
     4     3    10    1
     5     4     5    2
     6     4     6   am
     7     6     7   am
     8     6     1    1
     9     7     8    2
    10     7     9    1
    11     1    18    1
    12    18    19    2
    13    18    20    1
    14    20    24   ar
    15    20    21   ar
    16    21    22   ar
    17    22    23   ar
    18    23    24   ar
    19    23    25    1
    20    25    26    1
    21    26    27   am
    22    27    28    2
    23    27    30    1
    24    30    31    1
    25    30    32    1
    26    30    33    1
    27    10    15   ar
    28    10    11   ar
    29    11    12   ar
    30    12    13   ar
    31    13    14   ar
    32    13    16    1
    33    14    15   ar
    34    16    17    3
    35    26    29    1
@<TRIPOS>MOLECULE
ZINC15987534
 33 36 0 0 0
SMALL
GASTEIGER

@<TRIPOS>ATOM
      1 C          11.5125   37.5355   27.0016 C.ar    1  UNL1        0.1549
      2 N          11.5121   36.3643   26.4111 N.ar    1  UNL1       -0.1907
      3 C          11.1352   36.2183   25.1293 C.ar    1  UNL1        0.2993
      4 O          11.1370   35.1251   24.5862 O.2     1  UNL1       -0.2634
      5 C          10.7199   37.4316   24.4084 C.ar    1  UNL1        0.1521
      6 N          10.2987   37.7116   23.1978 N.ar    1  UNL1       -0.3463
      7 N          10.0619   38.9699   23.0710 N.ar    1  UNL1       -0.5114
      8 N          10.3303   39.6452   24.2721 N.ar    1  UNL1       -0.4025
      9 C          10.7564   38.6950   25.1610 C.ar    1  UNL1        0.1496
     10 N          11.1483   38.6655   26.4198 N.ar    1  UNL1       -0.2124
     11 C          11.9516   37.5964   28.4419 C.3     1  UNL1        0.1236
     12 S          13.7638   37.5889   28.5223 S.3     1  UNL1       -0.1224
     13 C          14.1430   38.6109   29.9722 C.3     1  UNL1        0.1431
     14 N          16.1027   39.0081   31.4284 N.am    1  UNL1       -0.2832
     15 C          15.6224   38.5543   30.2537 C.2     1  UNL1        0.2371
     16 O          16.3807   38.1004   29.4232 O.2     1  UNL1       -0.2738
     17 H          15.4817   39.3043   32.1326 H       1  UNL1        0.1549
     18 C          20.6799   38.4147   29.7347 C.3     1  UNL1        0.0311
     19 C          19.7254   38.7732   30.8444 C.ar    1  UNL1       -0.0209
     20 C          20.2149   39.1581   32.0791 C.ar    1  UNL1       -0.0084
     21 C          19.3425   39.4928   33.0983 C.ar    1  UNL1       -0.0209
     22 C          17.9787   39.4439   32.8859 C.ar    1  UNL1        0.0104
     23 C          17.4839   39.0583   31.6470 C.ar    1  UNL1        0.0497
     24 C          18.3627   38.7226   30.6254 C.ar    1  UNL1        0.0104
     25 C          19.8803   39.9111   34.4425 C.3     1  UNL1        0.0311
     26 C          10.1834   41.0808   24.5242 C.3     1  UNL1        0.1155
     27 C          10.7828   41.8560   23.3793 C.ar    1  UNL1       -0.0008
     28 C          12.1562   41.9360   23.2435 C.ar    1  UNL1       -0.0001
     29 C          12.7071   42.6426   22.1912 C.ar    1  UNL1        0.0294
     30 C          11.8829   43.2791   21.2787 C.ar    1  UNL1        0.1401
     31 C          10.5075   43.2024   21.4187 C.ar    1  UNL1        0.0294
     32 C           9.9589   42.4910   22.4688 C.ar    1  UNL1       -0.0001
     33 F          12.4203   43.9739   20.2523 F       1  UNL1       -0.2042
@<TRIPOS>UNITY_ATOM_ATTR
7 1
charge -1
@<TRIPOS>BOND
     1    18    19    1
     2    19    24   ar
     3    19    20   ar
     4    20    21   ar
     5    21    22   ar
     6    21    25    1
     7    22    23   ar
     8    23    24   ar
     9    23    14    1
    10    14    15   am
    11    15    16    2
    12    15    13    1
    13    13    12    1
    14    12    11    1
    15    11     1    1
    16     1    10   ar
    17     1     2   ar
    18     2     3   ar
    19     3     4    2
    20     3     5   ar
    21     5     9    1
    22     5     6   ar
    23     6     7   ar
    24     7     8   ar
    25     8     9   ar
    26     8    26    1
    27     9    10   ar
    28    26    27    1
    29    27    32   ar
    30    27    28   ar
    31    28    29   ar
    32    29    30   ar
    33    30    31   ar
    34    30    33    1
    35    31    32   ar
    36    14    17    1
@<TRIPOS>MOLECULE
ZINC09369246
 33 36 0 0 0
SMALL
GASTEIGER

@<TRIPOS>ATOM
      1 O          20.5181   37.5703   29.1418 O.3     1  UNL1       -0.3347
      2 C          20.4424   38.2920   30.3728 C.3     1  UNL1        0.2277
      3 N          18.6387   39.1158   31.8516 N.am    1  UNL1       -0.2621
      4 C          19.0165   38.7107   30.6229 C.2     1  UNL1        0.2577
      5 O          18.2090   38.6833   29.7184 O.2     1  UNL1       -0.2720
      6 H          19.2952   39.1419   32.5848 H       1  UNL1        0.1568
      7 C          15.0275   39.5271   31.8726 C.ar    1  UNL1        0.1073
      8 C          14.9522   40.5104   32.8206 C.ar    1  UNL1        0.0588
      9 S          16.6829   40.7208   33.2177 S.2     1  UNL1       -0.0508
     10 C          17.3227   39.4964   32.0835 C.ar    1  UNL1        0.1656
     11 N          16.2135   39.0458   31.5292 N.ar    1  UNL1       -0.2224
     12 C          11.4072   38.8600   31.1487 C.ar    1  UNL1        0.0032
     13 C          11.5488   38.0292   30.0451 C.ar    1  UNL1        0.0207
     14 C          12.8152   37.7227   29.5850 C.ar    1  UNL1        0.0989
     15 N          13.8869   38.2122   30.1759 N.ar    1  UNL1       -0.2423
     16 C          13.7954   39.0050   31.2365 C.ar    1  UNL1        0.0995
     17 C          12.5483   39.3553   31.7534 C.ar    1  UNL1        0.0207
     18 C          21.7831   36.9475   28.9100 C.3     1  UNL1        0.2277
     19 C          22.7636   37.9746   28.4049 C.2     1  UNL1        0.2577
     20 O          23.8813   38.0274   28.8727 O.2     1  UNL1       -0.2720
     21 N          22.3982   38.8344   27.4334 N.am    1  UNL1       -0.2621
     22 H          21.4909   38.7915   27.0538 H       1  UNL1        0.1568
     23 C          23.3022   39.7814   26.9678 C.ar    1  UNL1        0.1656
     24 N          23.5273   41.0059   27.4047 N.ar    1  UNL1       -0.2224
     25 C          24.4381   41.7828   26.8365 C.ar    1  UNL1        0.1073
     26 C          25.1589   41.3056   25.7761 C.ar    1  UNL1        0.0588
     27 S          24.4737   39.6610   25.6234 S.2     1  UNL1       -0.0508
     28 C          24.6738   43.1544   27.3448 C.ar    1  UNL1        0.0995
     29 C          23.8091   43.6985   28.2940 C.ar    1  UNL1        0.0207
     30 C          24.0424   44.9802   28.7589 C.ar    1  UNL1        0.0032
     31 C          25.1338   45.6784   28.2596 C.ar    1  UNL1        0.0207
     32 C          25.9504   45.0785   27.3199 C.ar    1  UNL1        0.0989
     33 N          25.7095   43.8536   26.8970 N.ar    1  UNL1       -0.2423
@<TRIPOS>BOND
     1    12    17   ar
     2    12    13   ar
     3    13    14   ar
     4    14    15   ar
     5    15    16   ar
     6    16    17   ar
     7    16     7    1
     8     7    11   ar
     9     7     8   ar
    10     8     9   ar
    11     9    10   ar
    12    10    11   ar
    13    10     3    1
    14     3     4   am
    15     4     5    2
    16     4     2    1
    17     2     1    1
    18     1    18    1
    19    18    19    1
    20    19    20    2
    21    19    21   am
    22    21    23    1
    23    23    27   ar
    24    23    24   ar
    25    24    25   ar
    26    25    26   ar
    27    25    28    1
    28    26    27   ar
    29    28    33   ar
    30    28    29   ar
    31    29    30   ar
    32    30    31   ar
    33    31    32   ar
    34    32    33   ar
    35     3     6    1
    36    21    22    1
@<TRIPOS>MOLECULE
ZINC31652886
 35 38 0 0 0
SMALL
GASTEIGER

@<TRIPOS>ATOM
      1 C          25.7527   41.9468   29.1334 C.2     1  UNL1        0.2490
      2 O          26.6286   41.7951   29.9631 O.2     1  UNL1       -0.2699
      3 N          25.1000   40.8762   28.6392 N.am    1  UNL1       -0.2756
      4 C          24.1221   41.0311   27.5536 C.3     1  UNL1        0.0937
      5 C          24.4978   40.0812   26.4121 C.3     1  UNL1        0.0221
      6 C          24.6117   38.6555   26.9568 C.3     1  UNL1        0.0126
      7 C          25.7153   38.5987   28.0155 C.3     1  UNL1        0.0966
      8 C          25.3574   39.5312   29.1714 C.3     1  UNL1        0.1027
      9 C          24.7498   45.8496   27.7924 C.ar    1  UNL1        0.0814
     10 C          23.8410   45.1228   28.5559 C.ar    1  UNL1        0.0192
     11 C          24.1611   43.8556   28.9877 C.ar    1  UNL1        0.0061
     12 C          25.4043   43.3031   28.6677 C.ar    1  UNL1        0.0537
     13 C          26.3167   44.0377   27.9054 C.ar    1  UNL1        0.0061
     14 C          25.9886   45.3023   27.4721 C.ar    1  UNL1        0.0192
     15 C          23.4384   49.1388   27.2008 C.ar    1  UNL1        0.0904
     16 C          24.3550   49.0476   26.2158 C.ar    1  UNL1        0.0197
     17 C          24.9738   47.7793   26.3079 C.ar    1  UNL1       -0.0001
     18 O          25.8507   47.3524   25.5786 O.co2   1  UNL1       -0.8597
     19 N          24.4209   47.1301   27.3528 N.ar    1  UNL1       -0.2450
     20 N          23.4536   47.9741   27.9144 N.ar    1  UNL1       -0.1701
     21 C          22.5482   50.3247   27.4689 C.3     1  UNL1        0.1569
     22 C          21.1051   49.9039   27.3623 C.2     1  UNL1        0.3233
     23 O          20.5317   49.9757   26.3012 O.2     1  UNL1       -0.2497
     24 C          19.4154   50.2987   28.9959 C.3     1  UNL1        0.2556
     25 O          20.4567   49.4492   28.4461 O.3     1  UNL1       -0.4441
     26 C          25.8486   37.1878   28.5280 C.2     1  UNL1        0.2273
     27 O          24.9918   36.7208   29.2484 O.2     1  UNL1       -0.2747
     28 N          26.9199   36.4450   28.1859 N.am    1  UNL1       -0.2839
     29 H          27.6517   36.8474   27.6648 H       1  UNL1        0.1549
     30 C          26.9917   35.1018   28.5714 C.ar    1  UNL1        0.0503
     31 C          27.0600   34.7669   29.9175 C.ar    1  UNL1        0.0147
     32 C          27.1250   33.4400   30.2950 C.ar    1  UNL1        0.0013
     33 C          27.1342   32.4458   29.3340 C.ar    1  UNL1        0.0001
     34 C          27.0716   32.7762   27.9926 C.ar    1  UNL1        0.0013
     35 C          27.0007   34.1010   27.6087 C.ar    1  UNL1        0.0147
@<TRIPOS>UNITY_ATOM_ATTR
18 1
charge -1
@<TRIPOS>BOND
     1    24    25    1
     2    25    22    1
     3    22    23    2
     4    22    21    1
     5    21    15    1
     6    15    20   ar
     7    15    16   ar
     8    16    17   ar
     9    17    18    1
    10    17    19   ar
    11    19    20   ar
    12    19     9    1
    13     9    14   ar
    14     9    10   ar
    15    10    11   ar
    16    11    12   ar
    17    12    13   ar
    18    12     1    1
    19    13    14   ar
    20     1     2    2
    21     1     3   am
    22     3     8    1
    23     3     4    1
    24     4     5    1
    25     5     6    1
    26     6     7    1
    27     7     8    1
    28     7    26    1
    29    26    27    2
    30    26    28   am
    31    28    30    1
    32    30    35   ar
    33    30    31   ar
    34    31    32   ar
    35    32    33   ar
    36    33    34   ar
    37    34    35   ar
    38    28    29    1
@<TRIPOS>MOLECULE
ZINC16427847
 31 34 0 0 0
SMALL
GASTEIGER

@<TRIPOS>ATOM
      1 N          21.2726   38.6852   30.6037 N.pl3   1  UNL1       -0.3114
      2 H          22.1269   38.9540   31.0127 H       1  UNL1        0.1523
      3 C          20.0678   39.7426   32.4089 C.ar    1  UNL1        0.0159
      4 C          18.8739   40.0517   33.0301 C.ar    1  UNL1        0.0182
      5 C          17.6776   39.6226   32.4851 C.ar    1  UNL1        0.0894
      6 C          17.6727   38.8778   31.3199 C.ar    1  UNL1        0.0182
      7 C          18.8627   38.5694   30.6906 C.ar    1  UNL1        0.0159
      8 C          20.0662   38.9994   31.2352 C.ar    1  UNL1        0.0484
      9 S          16.1565   40.0198   33.2807 S.O2    1  UNL1       -0.0565
     10 O          16.4250   41.1132   34.1476 O.2     1  UNL1       -0.1841
     11 O          15.6101   38.7938   33.7475 O.2     1  UNL1       -0.1841
     12 N          15.1258   40.5833   32.1134 N.pl3   1  UNL1       -0.5152
     13 C          14.1423   39.7536   31.5982 C.ar    1  UNL1        0.0047
     14 N          12.8709   39.6640   31.9391 N.ar    1  UNL1       -0.2605
     15 C          12.0609   38.8132   31.3372 C.ar    1  UNL1        0.1042
     16 C          12.5659   38.0197   30.3629 C.ar    1  UNL1        0.0556
     17 S          14.2690   38.5598   30.3435 S.2     1  UNL1       -0.0898
     18 C          21.2665   38.0095   29.4266 C.2     1  UNL1        0.0699
     19 C          21.6855   38.6356   28.2685 C.2     1  UNL1        0.1102
     20 C          22.2737   39.9855   28.3320 C.ar    1  UNL1        0.2341
     21 N          23.5252   40.2737   28.0678 N.ar    1  UNL1       -0.2081
     22 C          23.7082   41.6104   28.2291 C.ar    1  UNL1        0.1197
     23 C          24.8108   42.4560   28.0874 C.ar    1  UNL1        0.0337
     24 C          24.6725   43.8057   28.3296 C.ar    1  UNL1        0.0594
     25 C          23.4451   44.3278   28.7130 C.ar    1  UNL1        0.0146
     26 C          22.3478   43.5033   28.8563 C.ar    1  UNL1        0.0400
     27 C          22.4689   42.1437   28.6172 C.ar    1  UNL1        0.1648
     28 O          21.6035   41.1054   28.6642 O.2     1  UNL1       -0.4344
     29 CL         26.0412   44.8588   28.1535 Cl      1  UNL1       -0.0822
     30 C          21.5501   37.9809   27.0217 C.2     1  UNL1        0.2401
     31 O          20.5645   37.3093   26.7924 O.2     1  UNL1       -0.2829
@<TRIPOS>UNITY_ATOM_ATTR
12 1
charge -1
@<TRIPOS>BOND
     1     3     8   ar
     2     3     4   ar
     3     4     5   ar
     4     5     6   ar
     5     5     9    1
     6     6     7   ar
     7     7     8   ar
     8     8     1    1
     9     1    18    1
    10    18    19    2
    11    19    30    1
    12    19    20    1
    13    30    31    2
    14    20    28   ar
    15    20    21   ar
    16    21    22   ar
    17    22    27   ar
    18    22    23   ar
    19    23    24   ar
    20    24    25   ar
    21    24    29    1
    22    25    26   ar
    23    26    27   ar
    24    27    28   ar
    25     9    10    2
    26     9    11    2
    27     9    12    1
    28    12    13    1
    29    13    17   ar
    30    13    14   ar
    31    14    15   ar
    32    15    16   ar
    33    16    17   ar
    34     1     2    1
@<TRIPOS>MOLECULE
ZINC09491936
 33 36 0 0 0
SMALL
GASTEIGER

@<TRIPOS>ATOM
      1 N          10.5878   39.0996   25.7320 N.am    1  UNL1       -0.2249
      2 C          11.6121   38.4238   26.2893 C.2     1  UNL1        0.2499
      3 O          12.6944   38.4040   25.7423 O.2     1  UNL1       -0.2726
      4 H           9.7081   39.1123   26.1738 H       1  UNL1        0.1735
      5 C          11.6353   43.4714   19.1915 C.3     1  UNL1       -0.0000
      6 C          11.4319   43.2146   20.6860 C.3     1  UNL1       -0.0001
      7 C          10.1075   42.4794   20.9014 C.3     1  UNL1       -0.0012
      8 C           9.8992   42.2337   22.3979 C.3     1  UNL1       -0.0114
      9 C          11.0552   41.4039   22.9453 C.3     1  UNL1       -0.0122
     10 C          12.3853   42.1130   22.7156 C.3     1  UNL1       -0.0114
     11 C          12.5836   42.3590   21.2178 C.3     1  UNL1       -0.0012
     12 C          10.8536   41.1267   24.4176 C.2     1  UNL1        0.2267
     13 O          10.7791   41.9396   25.3140 O.2     1  UNL1       -0.2747
     14 N          10.7749   39.7841   24.5239 N.am    1  UNL1       -0.1719
     15 C          10.9035   39.1868   23.3329 C.2     1  UNL1        0.1544
     16 O          10.8712   37.9823   23.1737 O.2     1  UNL1       -0.2952
     17 N          11.0691   40.0706   22.3302 N.am    1  UNL1       -0.6111
     18 C          11.4125   37.6928   27.5918 C.3     1  UNL1        0.1513
     19 S          12.7569   36.5042   27.8287 S.3     1  UNL1       -0.0658
     20 C          13.8958   37.5053   28.7261 C.ar    1  UNL1        0.1936
     21 N          14.9791   38.0738   28.2498 N.ar    1  UNL1       -0.1224
     22 N          15.5735   38.7300   29.1815 N.ar    1  UNL1       -0.1328
     23 C          14.9110   38.6207   30.2982 C.ar    1  UNL1        0.1434
     24 N          13.8154   37.8416   30.0470 N.ar    1  UNL1       -0.2896
     25 C          15.2801   39.2429   31.6202 C.3     1  UNL1        0.0588
     26 C          14.9705   40.7407   31.5830 C.3     1  UNL1        0.0075
     27 C          15.3453   41.3724   32.9252 C.3     1  UNL1        0.0004
     28 C          16.8388   41.1667   33.1863 C.3     1  UNL1        0.0000
     29 C          17.1486   39.6688   33.2234 C.3     1  UNL1        0.0004
     30 C          16.7737   39.0372   31.8813 C.3     1  UNL1        0.0075
     31 C          12.7737   37.4468   30.9985 C.3     1  UNL1        0.1356
     32 C          12.0200   38.6696   31.4540 C.2     1  UNL1       -0.0017
     33 C          11.0155   39.1219   30.7450 C.2     1  UNL1       -0.0029
@<TRIPOS>UNITY_ATOM_ATTR
17 1
charge -1
@<TRIPOS>BOND
     1     5     6    1
     2     6    11    1
     3     6     7    1
     4     7     8    1
     5     8     9    1
     6     9    17    1
     7     9    10    1
     8     9    12    1
     9    10    11    1
    10    12    13    2
    11    12    14   am
    12    14    15   am
    13    14     1    1
    14    15    16    2
    15    15    17    1
    16     1     2   am
    17     2     3    2
    18     2    18    1
    19    18    19    1
    20    19    20    1
    21    20    24   ar
    22    20    21   ar
    23    21    22   ar
    24    22    23   ar
    25    23    24   ar
    26    23    25    1
    27    24    31    1
    28    31    32    1
    29    32    33    2
    30    25    30    1
    31    25    26    1
    32    26    27    1
    33    27    28    1
    34    28    29    1
    35    29    30    1
    36     1     4    1
@<TRIPOS>MOLECULE
ZINC09506030
 30 32 0 0 0
SMALL
GASTEIGER

@<TRIPOS>ATOM
      1 N          25.0114   38.8111   29.6292 N.am    1  UNL1       -0.2778
      2 C          25.0697   37.4975   29.3335 C.2     1  UNL1        0.2426
      3 O          25.0393   37.1344   28.1767 O.2     1  UNL1       -0.2733
      4 H          25.0360   39.1059   30.5683 H       1  UNL1        0.1554
      5 C          23.7727   40.3307   28.0776 C.ar    1  UNL1        0.0358
      6 C          23.9680   41.2850   27.0120 C.ar    1  UNL1        0.0100
      7 C          25.2338   41.5232   26.6250 C.ar    1  UNL1        0.0367
      8 S          26.1944   40.4732   27.6955 S.2     1  UNL1       -0.0717
      9 C          24.9168   39.7472   28.6113 C.ar    1  UNL1        0.0819
     10 C          22.4356   39.9932   28.5719 C.2     1  UNL1        0.0871
     11 O          21.6609   40.8780   28.8840 O.2     1  UNL1       -0.3128
     12 N          22.0634   38.7024   28.6808 N.am    1  UNL1       -0.5456
     13 C          20.8111   38.3317   28.3476 C.2     1  UNL1        0.2307
     14 O          20.4267   38.4518   27.2017 O.2     1  UNL1       -0.2725
     15 O          19.9864   37.8286   29.2850 O.3     1  UNL1       -0.4615
     16 C          19.6404   38.8005   31.4909 C.3     1  UNL1        0.0512
     17 C          19.1804   38.7776   30.0318 C.3     1  UNL1        0.2070
     18 C          25.1724   36.4798   30.4402 C.3     1  UNL1        0.1558
     19 C          24.3414   36.9316   31.6669 C.3     1  UNL1        0.0285
     20 C          25.0482   36.1705   32.8195 C.3     1  UNL1        0.0211
     21 C          26.5300   36.1902   32.3891 C.3     1  UNL1        0.0964
     22 N          26.5592   36.3967   30.9337 N.3     1  UNL1       -0.1477
     23 S          27.9236   36.5153   30.0029 S.O2    1  UNL1        0.0694
     24 O          27.9455   37.8367   29.4807 O.2     1  UNL1       -0.1523
     25 O          28.9906   35.9842   30.7766 O.2     1  UNL1       -0.1523
     26 C          27.7117   35.4339   28.6279 C.ar    1  UNL1        0.1517
     27 C          27.1712   34.1913   28.5947 C.ar    1  UNL1        0.0271
     28 C          27.1041   33.5216   27.3873 C.ar    1  UNL1        0.0089
     29 C          27.5903   34.1231   26.2742 C.ar    1  UNL1        0.0368
     30 S          28.1601   35.6875   26.9186 S.2     1  UNL1       -0.0668
@<TRIPOS>UNITY_ATOM_ATTR
12 1
charge -1
@<TRIPOS>BOND
     1    16    17    1
     2    17    15    1
     3    15    13    1
     4    13    14    2
     5    13    12    1
     6    12    10    1
     7    10    11    2
     8    10     5    1
     9     5     9   ar
    10     5     6   ar
    11     6     7   ar
    12     7     8   ar
    13     8     9   ar
    14     9     1    1
    15     1     2   am
    16     2     3    2
    17     2    18    1
    18    18    22    1
    19    18    19    1
    20    19    20    1
    21    20    21    1
    22    21    22    1
    23    22    23    1
    24    23    24    2
    25    23    25    2
    26    23    26    1
    27    26    30   ar
    28    26    27   ar
    29    27    28   ar
    30    28    29   ar
    31    29    30   ar
    32     1     4    1
@<TRIPOS>MOLECULE
ZINC29453799
 34 37 0 0 0
SMALL
GASTEIGER

@<TRIPOS>ATOM
      1 N          14.7981   38.9893   31.3660 N.4     1  UNL1        0.2896
      2 C          13.3360   39.0996   31.4654 C.3     1  UNL1        0.1679
      3 C          12.6859   37.9796   30.6497 C.3     1  UNL1        0.1680
      4 N          13.1247   38.0781   29.2506 N.4     1  UNL1        0.2920
      5 C          14.5867   37.9679   29.1512 C.3     1  UNL1        0.1680
      6 C          15.2368   39.0878   29.9669 C.3     1  UNL1        0.1679
      7 H          15.0691   38.0708   31.7172 H       1  UNL1        0.2076
      8 H          12.8536   38.9966   28.8995 H       1  UNL1        0.2078
      9 C          15.4603   40.0027   32.1980 C.3     1  UNL1        0.1531
     10 C          18.9154   38.8816   31.6055 C.ar    1  UNL1        0.1450
     11 N          17.6482   39.2359   31.4243 N.ar    1  UNL1       -0.2337
     12 C          16.8933   39.6007   32.4341 C.ar    1  UNL1        0.1211
     13 C          17.4039   39.6100   33.6937 C.ar    1  UNL1        0.0575
     14 S          19.0769   39.0630   33.3770 S.2     1  UNL1       -0.0631
     15 C          21.8232   38.0999   29.5307 C.ar    1  UNL1        0.0439
     16 C          21.2546   38.6921   30.6744 C.ar    1  UNL1        0.0428
     17 C          19.9149   38.4501   30.6162 C.ar    1  UNL1        0.1691
     18 O          19.6646   37.7515   29.4912 O.2     1  UNL1       -0.4484
     19 C          20.8154   37.5382   28.8332 C.ar    1  UNL1        0.1797
     20 C          12.4625   37.0646   28.4185 C.3     1  UNL1        0.1922
     21 C          12.3037   37.5919   27.0158 C.2     1  UNL1        0.2821
     22 O          13.2823   37.9038   26.3708 O.2     1  UNL1       -0.2684
     23 N          11.0738   37.7222   26.4801 N.am    1  UNL1       -0.2791
     24 H          10.2856   37.3974   26.9724 H       1  UNL1        0.1550
     25 C          10.9173   38.3191   25.2238 C.ar    1  UNL1        0.0522
     26 C          10.8421   37.5302   24.0832 C.ar    1  UNL1        0.0156
     27 C          10.6824   38.1214   22.8456 C.ar    1  UNL1        0.0143
     28 C          10.6083   39.4994   22.7399 C.ar    1  UNL1        0.0801
     29 C          10.6886   40.2879   23.8740 C.ar    1  UNL1        0.1546
     30 C          10.8427   39.7013   25.1150 C.ar    1  UNL1        0.0396
     31 CL         10.4137   40.2397   21.1818 Cl      1  UNL1       -0.0805
     32 N          10.6091   41.7613   23.7573 N.pl3   1  UNL1        0.0586
     33 O           9.5752   42.3397   24.0402 O.2     1  UNL1       -0.1261
     34 O          11.5776   42.3954   23.3784 O.2     1  UNL1       -0.1261
@<TRIPOS>UNITY_ATOM_ATTR
1 1
charge 1
4 1
charge 1
@<TRIPOS>BOND
     1    15    19   ar
     2    15    16   ar
     3    16    17   ar
     4    17    18   ar
     5    17    10    1
     6    18    19   ar
     7    10    14   ar
     8    10    11   ar
     9    11    12   ar
    10    12    13   ar
    11    12     9    1
    12    13    14   ar
    13     9     1    1
    14     1     6    1
    15     1     2    1
    16     2     3    1
    17     3     4    1
    18     4     5    1
    19     4    20    1
    20     5     6    1
    21    20    21    1
    22    21    22    2
    23    21    23   am
    24    23    25    1
    25    25    30   ar
    26    25    26   ar
    27    26    27   ar
    28    27    28   ar
    29    28    29   ar
    30    28    31    1
    31    29    30   ar
    32    29    32    1
    33    32    33    2
    34    32    34    2
    35     1     7    1
    36     4     8    1
    37    23    24    1
@<TRIPOS>MOLECULE
ZINC29286833
 32 35 0 0 0
SMALL
GASTEIGER

@<TRIPOS>ATOM
      1 N          12.7268   37.8477   27.3827 N.am    1  UNL1       -0.2804
      2 C          12.5293   38.0080   28.7063 C.2     1  UNL1        0.2495
      3 O          11.4100   37.9066   29.1707 O.2     1  UNL1       -0.2698
      4 H          13.6409   37.8532   27.0172 H       1  UNL1        0.1552
      5 C          10.0255   36.2370   25.4791 C.ar    1  UNL1        0.0010
      6 C           9.4694   37.3295   24.8388 C.ar    1  UNL1       -0.0025
      7 C           9.9923   38.5933   25.0411 C.ar    1  UNL1       -0.0011
      8 C          11.0758   38.7679   25.8800 C.ar    1  UNL1        0.0121
      9 C          11.6331   37.6737   26.5286 C.ar    1  UNL1        0.0503
     10 C          11.1053   36.4053   26.3231 C.ar    1  UNL1        0.0147
     11 C           9.3836   39.7808   24.3409 C.3     1  UNL1        0.1202
     12 N          10.4395   40.5536   23.6822 N.am    1  UNL1       -0.2754
     13 C          11.0291   41.7822   24.2270 C.3     1  UNL1        0.0942
     14 C          11.7447   42.4588   23.0369 C.3     1  UNL1        0.0311
     15 C          12.0405   41.2505   22.1185 C.3     1  UNL1        0.0870
     16 C          10.9969   40.2253   22.5039 C.2     1  UNL1        0.2259
     17 O          10.7039   39.2506   21.8444 O.2     1  UNL1       -0.2749
     18 C          13.6708   38.3061   29.5914 C.ar    1  UNL1        0.0536
     19 C          13.4490   38.6586   30.9259 C.ar    1  UNL1        0.0027
     20 C          14.5164   38.9311   31.7507 C.ar    1  UNL1       -0.0237
     21 C          15.8156   38.8671   31.2542 C.ar    1  UNL1       -0.1123
     22 C          16.0395   38.5215   29.9244 C.ar    1  UNL1       -0.0237
     23 C          14.9767   38.2423   29.0961 C.ar    1  UNL1        0.0027
     24 N          16.8917   39.1486   32.0887 N.pl3   1  UNL1       -0.5354
     25 S          16.6840   40.1325   33.4044 S.O2    1  UNL1       -0.0520
     26 O          16.3569   41.4204   32.9008 O.2     1  UNL1       -0.1837
     27 O          15.8405   39.4307   34.3072 O.2     1  UNL1       -0.1837
     28 C          18.2518   40.2840   34.1943 C.ar    1  UNL1        0.1187
     29 C          18.7979   41.3623   34.8078 C.ar    1  UNL1        0.0241
     30 C          20.0574   41.2495   35.3660 C.ar    1  UNL1        0.0088
     31 C          20.7091   40.0639   35.2833 C.ar    1  UNL1        0.0367
     32 S          19.5298   39.0548   34.4013 S.2     1  UNL1       -0.0697
@<TRIPOS>UNITY_ATOM_ATTR
24 1
charge -1
@<TRIPOS>BOND
     1     5    10   ar
     2     5     6   ar
     3     6     7   ar
     4     7     8   ar
     5     7    11    1
     6     8     9   ar
     7     9    10   ar
     8     9     1    1
     9     1     2   am
    10     2     3    2
    11     2    18    1
    12    18    23   ar
    13    18    19   ar
    14    19    20   ar
    15    20    21   ar
    16    21    22   ar
    17    21    24    1
    18    22    23   ar
    19    24    25    1
    20    25    26    2
    21    25    27    2
    22    25    28    1
    23    28    32   ar
    24    28    29   ar
    25    29    30   ar
    26    30    31   ar
    27    31    32   ar
    28    11    12    1
    29    12    16   am
    30    12    13    1
    31    13    14    1
    32    14    15    1
    33    15    16    1
    34    16    17    2
    35     1     4    1
@<TRIPOS>MOLECULE
ZINC22227712
 33 36 0 0 0
SMALL
GASTEIGER

@<TRIPOS>ATOM
      1 C          11.1783   38.0905   26.1780 C.ar    1  UNL1        0.1239
      2 C          10.7148   38.7872   27.2792 C.ar    1  UNL1        0.0213
      3 C          11.2972   38.5933   28.5161 C.ar    1  UNL1        0.0174
      4 C          12.3424   37.6886   28.6559 C.ar    1  UNL1        0.0677
      5 C          12.8057   36.9910   27.5478 C.ar    1  UNL1        0.1572
      6 C          12.2224   37.1941   26.3124 C.ar    1  UNL1        0.0452
      7 S          10.4370   38.3464   24.6001 S.O2    1  UNL1        0.0633
      8 O          11.1223   37.4998   23.6875 O.2     1  UNL1       -0.1528
      9 O           9.0313   38.2764   24.7957 O.2     1  UNL1       -0.1528
     10 C          11.7486   41.5257   20.8674 C.3     1  UNL1        0.0015
     11 C          10.8459   41.1238   22.0355 C.3     1  UNL1        0.0178
     12 C          10.4319   42.3742   22.8147 C.3     1  UNL1        0.0029
     13 C           9.5024   41.9769   23.9637 C.3     1  UNL1        0.0192
     14 C          10.2436   41.0379   24.9139 C.3     1  UNL1        0.0958
     15 N          10.7750   39.9029   24.1470 N.3     1  UNL1       -0.1555
     16 C          11.6069   40.1752   22.9670 C.3     1  UNL1        0.0958
     17 N          13.9236   36.0316   27.6907 N.pl3   1  UNL1        0.0589
     18 O          14.8291   36.2635   28.4716 O.2     1  UNL1       -0.1261
     19 O          13.9381   35.0103   27.0272 O.2     1  UNL1       -0.1261
     20 N          12.9301   37.4858   29.9067 N.pl3   1  UNL1       -0.3277
     21 H          13.3427   36.6183   30.1218 H       1  UNL1        0.1472
     22 C          12.9324   38.5641   30.8983 C.3     1  UNL1        0.1159
     23 C          14.3459   38.8295   31.3485 C.ar    1  UNL1        0.0167
     24 C          14.6116   39.1525   32.6720 C.ar    1  UNL1        0.0020
     25 C          15.9245   39.3841   33.0442 C.ar    1  UNL1        0.0372
     26 C          16.9247   39.2962   32.0839 C.ar    1  UNL1        0.1489
     27 N          16.6309   38.9905   30.8308 N.ar    1  UNL1       -0.2267
     28 C          15.3902   38.7595   30.4473 C.ar    1  UNL1        0.0979
     29 N          18.2547   39.5325   32.4456 N.ar    1  UNL1       -0.2712
     30 C          18.6908   40.3142   33.4850 C.ar    1  UNL1        0.1035
     31 C          20.0360   40.2639   33.4726 C.ar    1  UNL1        0.1197
     32 N          20.4169   39.4753   32.4564 N.ar    1  UNL1       -0.2220
     33 C          19.3598   39.0263   31.8373 C.ar    1  UNL1        0.1840
@<TRIPOS>BOND
     1    10    11    1
     2    11    16    1
     3    11    12    1
     4    12    13    1
     5    13    14    1
     6    14    15    1
     7    15    16    1
     8    15     7    1
     9     7     8    2
    10     7     9    2
    11     7     1    1
    12     1     6   ar
    13     1     2   ar
    14     2     3   ar
    15     3     4   ar
    16     4     5   ar
    17     4    20    1
    18     5     6   ar
    19     5    17    1
    20    17    18    2
    21    17    19    2
    22    20    22    1
    23    22    23    1
    24    23    28   ar
    25    23    24   ar
    26    24    25   ar
    27    25    26   ar
    28    26    27   ar
    29    26    29    1
    30    27    28   ar
    31    29    33   ar
    32    29    30   ar
    33    30    31   ar
    34    31    32   ar
    35    32    33   ar
    36    20    21    1
@<TRIPOS>MOLECULE
ZINC17440756
 28 29 0 0 0
SMALL
GASTEIGER

@<TRIPOS>ATOM
      1 C          19.7629   39.0198   31.1918 C.ar    1  UNL1        0.0652
      2 C          18.4631   39.4190   31.5113 C.ar    1  UNL1        0.0231
      3 C          18.1830   39.9001   32.7723 C.ar    1  UNL1        0.1000
      4 C          19.1896   39.9982   33.7197 C.ar    1  UNL1        0.0742
      5 C          20.4813   39.6095   33.4089 C.ar    1  UNL1        0.0242
      6 C          20.7740   39.1212   32.1508 C.ar    1  UNL1        0.0629
      7 CL         22.3943   38.6341   31.7619 Cl      1  UNL1       -0.0821
      8 CL         18.8291   40.6116   35.3032 Cl      1  UNL1       -0.0809
      9 N          20.5850   39.3168   28.9061 N.am    1  UNL1       -0.2915
     10 C          20.0684   38.4984   29.8441 C.2     1  UNL1        0.2471
     11 O          19.8540   37.3312   29.5808 O.2     1  UNL1       -0.2701
     12 H          20.7550   40.2631   29.1180 H       1  UNL1        0.1502
     13 C          20.8937   38.7983   27.5711 C.3     1  UNL1        0.2008
     14 C          22.3844   38.8297   27.3523 C.2     1  UNL1        0.3374
     15 O          22.8681   38.2572   26.4046 O.2     1  UNL1       -0.2482
     16 C          23.6649   40.7925   27.7849 C.3     1  UNL1        0.2557
     17 O          23.1749   39.4937   28.2103 O.3     1  UNL1       -0.4432
     18 S          16.5426   40.3987   33.1782 S.O2    1  UNL1       -0.0570
     19 O          15.9195   39.2811   33.7963 O.2     1  UNL1       -0.1841
     20 O          16.6491   41.6625   33.8192 O.2     1  UNL1       -0.1841
     21 N          15.7424   40.6576   31.7516 N.pl3   1  UNL1       -0.5358
     22 C          14.7861   39.7401   31.3109 C.ar    1  UNL1       -0.1115
     23 C          13.5224   39.7201   31.8883 C.ar    1  UNL1       -0.0238
     24 C          12.5785   38.8122   31.4505 C.ar    1  UNL1       -0.0010
     25 C          12.8892   37.9233   30.4377 C.ar    1  UNL1        0.0113
     26 C          14.1466   37.9400   29.8601 C.ar    1  UNL1        0.0559
     27 C          15.0942   38.8496   30.2908 C.ar    1  UNL1       -0.0124
     28 CL         14.5318   36.8225   28.5886 Cl      1  UNL1       -0.0823
@<TRIPOS>UNITY_ATOM_ATTR
21 1
charge -1
@<TRIPOS>BOND
     1    16    17    1
     2    17    14    1
     3    14    15    2
     4    14    13    1
     5    13     9    1
     6     9    10   am
     7    10    11    2
     8    10     1    1
     9     1     6   ar
    10     1     2   ar
    11     2     3   ar
    12     3     4   ar
    13     3    18    1
    14     4     5   ar
    15     4     8    1
    16     5     6   ar
    17     6     7    1
    18    18    19    2
    19    18    20    2
    20    18    21    1
    21    21    22    1
    22    22    27   ar
    23    22    23   ar
    24    23    24   ar
    25    24    25   ar
    26    25    26   ar
    27    26    27   ar
    28    26    28    1
    29     9    12    1
@<TRIPOS>MOLECULE
ZINC31512267
 35 38 0 0 0
SMALL
GASTEIGER

@<TRIPOS>ATOM
      1 N          18.9346   38.2703   30.6405 N.am    1  UNL1       -0.2661
      2 C          20.1648   38.3370   30.0941 C.2     1  UNL1        0.2718
      3 O          21.0232   39.0182   30.6138 O.2     1  UNL1       -0.2707
      4 H          18.2379   37.7172   30.2186 H       1  UNL1        0.1564
      5 N          17.4116   39.3523   32.2395 N.ar    1  UNL1       -0.1828
      6 C          18.6488   38.9844   31.8028 C.ar    1  UNL1        0.1400
      7 C          19.5537   39.4421   32.7099 C.ar    1  UNL1        0.0510
      8 C          18.8507   40.1036   33.7215 C.ar    1  UNL1        0.0823
      9 N          17.5742   40.0563   33.4396 N.ar    1  UNL1       -0.1658
     10 C          19.4614   40.7657   34.9297 C.3     1  UNL1        0.0540
     11 C          15.0959   37.3978   28.5188 C.3     1  UNL1        0.0522
     12 C          15.0785   38.1496   29.8249 C.ar    1  UNL1        0.0637
     13 C          13.8777   38.5633   30.3804 C.ar    1  UNL1        0.0296
     14 C          13.9077   39.2563   31.5806 C.ar    1  UNL1        0.0637
     15 N          15.0730   39.4911   32.1606 N.ar    1  UNL1       -0.2143
     16 C          16.2014   39.0818   31.6030 C.ar    1  UNL1        0.2535
     17 N          16.2087   38.4225   30.4555 N.ar    1  UNL1       -0.2143
     18 C          12.6281   39.7309   32.2196 C.3     1  UNL1        0.0522
     19 C          20.4739   37.5649   28.8373 C.3     1  UNL1        0.2931
     20 O          21.9044   37.3311   28.7524 O.3     1  UNL1       -0.4353
     21 C          22.5755   37.9883   27.7861 C.2     1  UNL1        0.3432
     22 O          22.5943   37.5494   26.6532 O.2     1  UNL1       -0.2448
     23 C          23.2868   39.2398   28.1035 C.ar    1  UNL1        0.0949
     24 C          22.6742   40.4833   27.8809 C.ar    1  UNL1        0.0109
     25 C          23.3717   41.6193   28.1900 C.ar    1  UNL1        0.0345
     26 C          24.6595   41.5102   28.7129 C.ar    1  UNL1        0.1317
     27 N          25.2154   40.3231   28.9137 N.ar    1  UNL1       -0.2290
     28 C          24.5773   39.2056   28.6354 C.ar    1  UNL1        0.1067
     29 N          25.3680   42.6574   29.0264 N.pl3   1  UNL1       -0.2932
     30 C          24.4641   43.8232   29.1450 C.3     1  UNL1        0.0922
     31 C          25.2044   45.1311   29.2140 C.3     1  UNL1        0.0215
     32 C          25.3095   45.7102   27.7876 C.3     1  UNL1        0.0018
     33 C          26.3597   45.0651   27.0071 C.3     1  UNL1        0.0018
     34 C          26.1073   43.5534   26.8281 C.3     1  UNL1        0.0215
     35 C          26.5039   42.8496   28.0973 C.3     1  UNL1        0.0922
@<TRIPOS>BOND
     1    11    12    1
     2    12    17   ar
     3    12    13   ar
     4    13    14   ar
     5    14    15   ar
     6    14    18    1
     7    15    16   ar
     8    16    17   ar
     9    16     5    1
    10     5     9   ar
    11     5     6   ar
    12     6     7   ar
    13     6     1    1
    14     7     8   ar
    15     8     9   ar
    16     8    10    1
    17     1     2   am
    18     2     3    2
    19     2    19    1
    20    19    20    1
    21    20    21    1
    22    21    22    2
    23    21    23    1
    24    23    28   ar
    25    23    24   ar
    26    24    25   ar
    27    25    26   ar
    28    26    27   ar
    29    26    29    1
    30    27    28   ar
    31    29    35    1
    32    29    30    1
    33    30    31    1
    34    31    32    1
    35    32    33    1
    36    33    34    1
    37    34    35    1
    38     1     4    1
@<TRIPOS>MOLECULE
ZINC25366100
 30 32 0 0 0
SMALL
GASTEIGER

@<TRIPOS>ATOM
      1 N          20.3908   38.4275   29.4385 N.am    1  UNL1       -0.5616
      2 C          20.8628   37.6674   28.4307 C.2     1  UNL1        0.2150
      3 O          20.4591   36.5298   28.2868 O.2     1  UNL1       -0.2724
      4 H          20.7177   39.3488   29.5550 H       1  UNL1        0.1096
      5 C          21.8715   38.2171   27.5001 C.ar    1  UNL1        0.0511
      6 C          22.6593   39.3041   27.8824 C.ar    1  UNL1        0.0041
      7 C          23.5990   39.8119   27.0094 C.ar    1  UNL1       -0.0033
      8 C          23.7616   39.2461   25.7572 C.ar    1  UNL1       -0.0109
      9 C          22.9803   38.1718   25.3701 C.ar    1  UNL1       -0.0033
     10 C          22.0406   37.6511   26.2355 C.ar    1  UNL1        0.0041
     11 C          24.7898   39.8065   24.8086 C.3     1  UNL1        0.0913
     12 S          23.9910   40.2485   23.2456 S.3     1  UNL1       -0.0708
     13 C          24.9791   41.6302   22.7771 C.ar    1  UNL1        0.1936
     14 N          24.7155   42.8943   23.0137 N.ar    1  UNL1       -0.1220
     15 N          25.6503   43.6328   22.5315 N.ar    1  UNL1       -0.1250
     16 C          26.5585   42.8908   21.9634 C.ar    1  UNL1        0.2031
     17 N          26.1665   41.5882   22.1046 N.ar    1  UNL1       -0.2860
     18 C          26.8725   40.3957   21.6296 C.3     1  UNL1        0.1341
     19 N          19.4349   37.9066   30.3204 N.3     1  UNL1       -0.0391
     20 S          19.0358   38.7394   31.6951 S.O2    1  UNL1       -0.2070
     21 O          19.2970   37.8689   32.7874 O.2     1  UNL1       -0.2031
     22 O          19.6373   40.0217   31.5821 O.2     1  UNL1       -0.2031
     23 C          13.0662   39.6155   31.5788 C.3     1  UNL1        0.0311
     24 C          14.5572   39.3977   31.6082 C.ar    1  UNL1       -0.0209
     25 C          15.1969   38.8466   30.5134 C.ar    1  UNL1       -0.0030
     26 C          16.5642   38.6458   30.5398 C.ar    1  UNL1        0.0161
     27 C          17.2929   38.9959   31.6612 C.ar    1  UNL1        0.0790
     28 C          16.6526   39.5425   32.7589 C.ar    1  UNL1        0.0717
     29 C          15.2846   39.7486   32.7296 C.ar    1  UNL1        0.0084
     30 CL         17.5659   39.9754   34.1703 Cl      1  UNL1       -0.0810
@<TRIPOS>UNITY_ATOM_ATTR
19 1
charge -1
@<TRIPOS>BOND
     1    23    24    1
     2    24    29   ar
     3    24    25   ar
     4    25    26   ar
     5    26    27   ar
     6    27    28   ar
     7    27    20    1
     8    28    29   ar
     9    28    30    1
    10    20    21    2
    11    20    22    2
    12    20    19    1
    13    19     1    1
    14     1     2   am
    15     2     3    2
    16     2     5    1
    17     5    10   ar
    18     5     6   ar
    19     6     7   ar
    20     7     8   ar
    21     8     9   ar
    22     8    11    1
    23     9    10   ar
    24    11    12    1
    25    12    13    1
    26    13    17   ar
    27    13    14   ar
    28    14    15   ar
    29    15    16   ar
    30    16    17   ar
    31    17    18    1
    32     1     4    1
@<TRIPOS>MOLECULE
ZINC09064707
 32 35 0 0 0
SMALL
GASTEIGER

@<TRIPOS>ATOM
      1 N          25.9358   41.1798   27.6728 N.am    1  UNL1       -0.6270
      2 C          24.0075   42.4439   28.4200 C.ar    1  UNL1        0.0028
      3 C          23.4717   43.6169   28.9510 C.ar    1  UNL1        0.0002
      4 C          24.2998   44.6800   29.2460 C.ar    1  UNL1       -0.0001
      5 C          25.6629   44.5868   29.0215 C.ar    1  UNL1       -0.0019
      6 C          26.2071   43.4290   28.5010 C.ar    1  UNL1       -0.0245
      7 C          25.3879   42.3505   28.1992 C.ar    1  UNL1       -0.1215
      8 C          23.3013   37.3806   25.6516 C.3     1  UNL1        0.0757
      9 C          22.2604   38.0666   26.4983 C.ar    1  UNL1        0.1647
     10 N          21.0552   37.6295   26.7342 N.ar    1  UNL1       -0.1310
     11 N          20.4268   38.4567   27.4951 N.ar    1  UNL1       -0.1203
     12 C          21.2043   39.4578   27.7778 C.ar    1  UNL1        0.2183
     13 N          22.4161   39.2676   27.1598 N.ar    1  UNL1       -0.1893
     14 N          23.3729   40.2552   27.3528 N.ar    1  UNL1       -0.1556
     15 C          23.1241   41.3031   28.0968 C.ar    1  UNL1        0.1318
     16 S          21.4410   41.0053   28.6152 S.2     1  UNL1       -0.0262
     17 C          26.9069   40.5292   28.3437 C.2     1  UNL1       -0.0344
     18 S          28.5477   40.9511   28.0976 S.2     1  UNL1       -0.0617
     19 N          26.5862   39.5464   29.2085 N.am    1  UNL1       -0.2954
     20 C          26.4326   38.2828   28.7657 C.2     1  UNL1        0.2544
     21 O          26.5835   38.0294   27.5860 O.2     1  UNL1       -0.2696
     22 H          26.4641   39.7515   30.1637 H       1  UNL1        0.1538
     23 C          26.0825   37.2098   29.7099 C.ar    1  UNL1        0.1213
     24 C          27.0368   36.2469   30.0707 C.ar    1  UNL1        0.1460
     25 C          26.6978   35.2442   30.9647 C.ar    1  UNL1        0.0373
     26 C          25.4215   35.1845   31.4927 C.ar    1  UNL1        0.0062
     27 C          24.4715   36.1249   31.1398 C.ar    1  UNL1        0.0373
     28 C          24.7902   37.1392   30.2516 C.ar    1  UNL1        0.1460
     29 O          23.8564   38.0610   29.9073 O.3     1  UNL1       -0.4712
     30 C          22.6409   38.0649   30.6587 C.3     1  UNL1        0.2525
     31 O          28.2883   36.3003   29.5500 O.3     1  UNL1       -0.4712
     32 C          29.3652   36.4971   30.4686 C.3     1  UNL1        0.2525
@<TRIPOS>UNITY_ATOM_ATTR
1 1
charge -1
@<TRIPOS>BOND
     1     8     9    1
     2     9    13   ar
     3     9    10   ar
     4    10    11   ar
     5    11    12   ar
     6    12    16   ar
     7    12    13   ar
     8    13    14   ar
     9    14    15   ar
    10    15    16   ar
    11    15     2    1
    12     2     7   ar
    13     2     3   ar
    14     3     4   ar
    15     4     5   ar
    16     5     6   ar
    17     6     7   ar
    18     7     1    1
    19     1    17    1
    20    17    18    2
    21    17    19    1
    22    19    20   am
    23    20    21    2
    24    20    23    1
    25    23    28   ar
    26    23    24   ar
    27    24    25   ar
    28    24    31    1
    29    25    26   ar
    30    26    27   ar
    31    27    28   ar
    32    28    29    1
    33    29    30    1
    34    31    32    1
    35    19    22    1
@<TRIPOS>MOLECULE
ZINC31189811
 31 33 0 0 0
SMALL
GASTEIGER

@<TRIPOS>ATOM
      1 C          23.7749   38.3763   26.8445 C.2     1  UNL1        0.3169
      2 O          23.9141   37.6979   25.8545 O.2     1  UNL1       -0.2501
      3 C          22.4082   38.5442   27.4569 C.3     1  UNL1        0.1025
      4 C          22.4147   39.7503   28.4002 C.3     1  UNL1        0.0327
      5 C          21.0424   39.8790   29.0652 C.3     1  UNL1        0.0942
      6 N          20.7424   38.6516   29.8133 N.pl3   1  UNL1       -0.2781
      7 C          20.6841   37.4867   28.9210 C.3     1  UNL1        0.0942
      8 C          22.0458   37.2865   28.2517 C.3     1  UNL1        0.0327
      9 C          19.5679   38.7840   30.5334 C.ar    1  UNL1        0.2227
     10 N          18.4089   38.5996   29.9185 N.ar    1  UNL1       -0.2119
     11 C          17.2648   38.7176   30.5752 C.ar    1  UNL1        0.1066
     12 C          17.2873   39.0375   31.9199 C.ar    1  UNL1        0.0784
     13 C          18.5221   39.2253   32.5386 C.ar    1  UNL1        0.2289
     14 N          19.6306   39.0866   31.8214 N.ar    1  UNL1       -0.1787
     15 O          18.5903   39.5400   33.8549 O.3     1  UNL1       -0.4560
     16 C          19.7259   39.0615   34.5783 C.3     1  UNL1        0.2542
     17 O          24.8375   38.9806   27.3989 O.3     1  UNL1       -0.4428
     18 C          27.2361   39.1373   27.0087 C.3     1  UNL1        0.0575
     19 C          26.0797   38.2296   27.4326 C.3     1  UNL1        0.2444
     20 C          26.3239   37.7249   28.8313 C.2     1  UNL1        0.2675
     21 O          27.1165   38.2939   29.5516 O.2     1  UNL1       -0.2708
     22 N          25.6615   36.6410   29.2820 N.am    1  UNL1       -0.2657
     23 H          25.0181   36.1790   28.6973 H       1  UNL1        0.1564
     24 C          25.8876   36.1739   30.5768 C.ar    1  UNL1        0.1449
     25 C          25.0658   36.5987   31.6161 C.ar    1  UNL1        0.0902
     26 C          25.3013   36.1273   32.8962 C.ar    1  UNL1        0.0272
     27 C          26.3552   35.2439   33.0933 C.ar    1  UNL1        0.0777
     28 C          27.1308   34.8652   32.0144 C.ar    1  UNL1        0.1117
     29 N          26.8817   35.3311   30.8052 N.ar    1  UNL1       -0.2273
     30 CL         26.6945   34.6228   34.6786 Cl      1  UNL1       -0.0806
     31 CL         23.7626   37.7046   31.3114 Cl      1  UNL1       -0.0793
@<TRIPOS>BOND
     1    18    19    1
     2    19    20    1
     3    19    17    1
     4    20    21    2
     5    20    22   am
     6    22    24    1
     7    24    29   ar
     8    24    25   ar
     9    25    26   ar
    10    25    31    1
    11    26    27   ar
    12    27    28   ar
    13    27    30    1
    14    28    29   ar
    15    17     1    1
    16     1     2    2
    17     1     3    1
    18     3     8    1
    19     3     4    1
    20     4     5    1
    21     5     6    1
    22     6     7    1
    23     6     9    1
    24     7     8    1
    25     9    14   ar
    26     9    10   ar
    27    10    11   ar
    28    11    12   ar
    29    12    13   ar
    30    13    14   ar
    31    13    15    1
    32    15    16    1
    33    22    23    1
@<TRIPOS>MOLECULE
ZINC20287387
 33 36 0 0 0
SMALL
GASTEIGER

@<TRIPOS>ATOM
      1 C          14.4025   36.8300   27.9750 C.3     1  UNL1        0.0487
      2 C          13.3392   37.4771   28.8246 C.2     1  UNL1        0.0448
      3 C          13.6943   38.1688   29.9701 C.2     1  UNL1        0.0817
      4 C          12.7967   38.7543   30.9776 C.2     1  UNL1        0.0935
      5 N          13.5378   39.3113   31.8857 N.2     1  UNL1       -0.1732
      6 N          14.8937   39.1630   31.5952 N.am    1  UNL1       -0.1316
      7 C          15.0490   38.4723   30.4476 C.2     1  UNL1        0.2755
      8 O          16.1009   38.1647   29.9134 O.2     1  UNL1       -0.2677
      9 C          15.9319   39.6493   32.3771 C.ar    1  UNL1        0.1891
     10 N          17.0641   39.0674   32.6967 N.ar    1  UNL1       -0.2224
     11 C          17.9931   39.6641   33.4738 C.ar    1  UNL1        0.0893
     12 C          19.2438   39.1513   33.8899 C.ar    1  UNL1        0.0197
     13 C          20.0756   39.8948   34.6854 C.ar    1  UNL1        0.0016
     14 C          19.7254   41.1684   35.1105 C.ar    1  UNL1        0.0006
     15 C          18.5097   41.7012   34.7230 C.ar    1  UNL1        0.0081
     16 C          17.6700   40.9640   33.9258 C.ar    1  UNL1        0.0498
     17 S          16.0710   41.2305   33.1985 S.2     1  UNL1       -0.0495
     18 N          12.0419   37.3824   28.4691 N.pl3   1  UNL1       -0.2668
     19 H          11.4110   36.8836   29.0369 H       1  UNL1        0.1697
     20 N          11.5918   37.9939   27.2916 N.am    1  UNL1       -0.2323
     21 C          11.3260   37.2455   26.2027 C.2     1  UNL1        0.2673
     22 O          11.3880   36.0318   26.2685 O.2     1  UNL1       -0.2681
     23 H          11.4696   38.9702   27.2596 H       1  UNL1        0.1731
     24 C          10.9624   37.8933   24.9390 C.ar    1  UNL1        0.0842
     25 C          10.5160   37.3186   23.7594 C.ar    1  UNL1        0.0116
     26 C          10.2395   38.1668   22.7163 C.ar    1  UNL1        0.0076
     27 C          10.4234   39.5031   22.8812 C.ar    1  UNL1        0.0356
     28 S          10.9863   39.6264   24.5162 S.2     1  UNL1       -0.0819
     29 C          11.2904   38.7139   30.9589 C.3     1  UNL1        0.1569
     30 C          10.7644   39.9277   30.2371 C.2     1  UNL1        0.3233
     31 O          10.4979   39.8626   29.0605 O.2     1  UNL1       -0.2497
     32 O          10.5918   41.0812   30.9015 O.3     1  UNL1       -0.4441
     33 C           9.6471   42.0303   30.3402 C.3     1  UNL1        0.2556
@<TRIPOS>BOND
     1     1     2    1
     2     2     3    2
     3     2    18    1
     4     3     7    1
     5     3     4    1
     6     4     5    2
     7     4    29    1
     8     5     6    1
     9     6     7   am
    10     6     9    1
    11     7     8    2
    12     9    17   ar
    13     9    10   ar
    14    10    11   ar
    15    11    16   ar
    16    11    12   ar
    17    12    13   ar
    18    13    14   ar
    19    14    15   ar
    20    15    16   ar
    21    16    17   ar
    22    29    30    1
    23    30    31    2
    24    30    32    1
    25    32    33    1
    26    18    20    1
    27    20    21   am
    28    21    22    2
    29    21    24    1
    30    24    28   ar
    31    24    25   ar
    32    25    26   ar
    33    26    27   ar
    34    27    28   ar
    35    18    19    1
    36    20    23    1
@<TRIPOS>MOLECULE
ZINC14241340
 34 36 0 0 0
SMALL
GASTEIGER

@<TRIPOS>ATOM
      1 N          24.9997   38.2072   27.3255 N.3     1  UNL1       -0.1493
      2 C          25.5383   37.3879   28.4289 C.3     1  UNL1        0.1022
      3 C          24.4829   37.1637   29.5251 C.3     1  UNL1        0.0800
      4 C          23.6972   38.4380   29.7421 C.3     1  UNL1        0.1071
      5 C          22.6652   38.9085   27.5772 C.3     1  UNL1        0.1250
      6 C          23.6638   38.0200   26.7970 C.3     1  UNL1        0.1564
      7 N          22.4728   38.3581   28.8965 N.4     1  UNL1        0.2784
      8 H          22.2515   37.3691   28.7803 H       1  UNL1        0.2070
      9 S          25.9590   39.3856   26.6669 S.O2    1  UNL1        0.0635
     10 O          27.3036   39.0093   26.9310 O.2     1  UNL1       -0.1528
     11 O          25.4761   39.6134   25.3501 O.2     1  UNL1       -0.1528
     12 C          24.9438   44.4552   29.7773 C.3     1  UNL1        0.0310
     13 C          25.1972   43.1889   29.0006 C.ar    1  UNL1       -0.0218
     14 C          24.5022   42.9447   27.8308 C.ar    1  UNL1       -0.0029
     15 C          24.7346   41.7831   27.1184 C.ar    1  UNL1        0.0196
     16 C          25.6627   40.8662   27.5751 C.ar    1  UNL1        0.1222
     17 C          26.3543   41.1081   28.7473 C.ar    1  UNL1        0.0196
     18 C          26.1249   42.2717   29.4576 C.ar    1  UNL1       -0.0029
     19 C          21.3707   39.0628   29.5642 C.3     1  UNL1        0.1196
     20 C          21.0034   40.2783   28.7107 C.3     1  UNL1        0.0697
     21 C          20.1897   38.1299   29.6443 C.2     1  UNL1        0.2366
     22 O          20.2561   37.0229   29.1501 O.2     1  UNL1       -0.2838
     23 C          19.0033   38.5443   30.2956 C.ar    1  UNL1        0.0934
     24 C          18.9134   39.0300   31.5823 C.ar    1  UNL1        0.0041
     25 C          17.5516   39.3176   31.8160 C.ar    1  UNL1        0.0846
     26 C          16.8614   38.9956   30.6602 C.ar    1  UNL1        0.0400
     27 N          17.7351   38.5385   29.7513 N.ar    1  UNL1       -0.3541
     28 C          15.3756   39.1412   30.4549 C.3     1  UNL1        0.0500
     29 C          20.0507   39.2183   32.5529 C.3     1  UNL1        0.0329
     30 H          17.5077   38.2450   28.8395 H       1  UNL1        0.1657
     31 C          16.9730   39.8586   33.0577 C.2     1  UNL1        0.3421
     32 O          16.3381   39.1339   33.7984 O.2     1  UNL1       -0.2449
     33 O          17.1476   41.1573   33.3724 O.3     1  UNL1       -0.4413
     34 C          18.0006   41.4508   34.5101 C.3     1  UNL1        0.2560
@<TRIPOS>UNITY_ATOM_ATTR
7 1
charge 1
@<TRIPOS>BOND
     1    12    13    1
     2    13    18   ar
     3    13    14   ar
     4    14    15   ar
     5    15    16   ar
     6    16    17   ar
     7    16     9    1
     8    17    18   ar
     9     9    10    2
    10     9    11    2
    11     9     1    1
    12     1     6    1
    13     1     2    1
    14     2     3    1
    15     3     4    1
    16     4     7    1
    17     5     6    1
    18     5     7    1
    19    19    20    1
    20    19    21    1
    21    19     7    1
    22    21    22    2
    23    21    23    1
    24    23    27   ar
    25    23    24   ar
    26    24    25   ar
    27    24    29    1
    28    25    26   ar
    29    25    31    1
    30    26    27   ar
    31    26    28    1
    32    31    32    2
    33    31    33    1
    34    33    34    1
    35    27    30    1
    36     7     8    1
@<TRIPOS>MOLECULE
ZINC16793249
 32 33 0 0 0
SMALL
GASTEIGER

@<TRIPOS>ATOM
      1 C          14.8900   38.5835   29.2183 C.3     1  UNL1        0.2005
      2 N          15.5698   38.3422   30.4934 N.3     1  UNL1       -0.1681
      3 H          15.2050   37.4630   30.8598 H       1  UNL1        0.1494
      4 S          15.4558   39.4536   31.7158 S.O2    1  UNL1        0.0601
      5 O          15.0375   40.6731   31.1181 O.2     1  UNL1       -0.1530
      6 O          14.7276   38.8303   32.7648 O.2     1  UNL1       -0.1530
      7 C          20.6380   38.8543   31.3890 C.3     1  UNL1        0.0307
      8 C          19.4524   39.4193   32.1282 C.ar    1  UNL1       -0.0248
      9 C          19.6439   40.1508   33.2855 C.ar    1  UNL1       -0.0091
     10 C          18.5565   40.6695   33.9632 C.ar    1  UNL1       -0.0248
     11 C          17.2775   40.4563   33.4841 C.ar    1  UNL1       -0.0075
     12 C          17.0861   39.7253   32.3266 C.ar    1  UNL1        0.1134
     13 C          18.1732   39.2025   31.6514 C.ar    1  UNL1       -0.0075
     14 C          17.9639   38.4002   30.3930 C.3     1  UNL1        0.0321
     15 C          16.0920   41.0213   34.2232 C.3     1  UNL1        0.0321
     16 C          18.7654   41.4670   35.2248 C.3     1  UNL1        0.0307
     17 C          13.6489   37.7320   29.1417 C.2     1  UNL1        0.3353
     18 O          12.9822   37.5455   30.1319 O.2     1  UNL1       -0.2485
     19 O          13.2842   37.1809   27.9733 O.3     1  UNL1       -0.4418
     20 C          11.9070   37.3732   27.5552 C.3     1  UNL1        0.2444
     21 C          11.2410   36.0109   27.3514 C.3     1  UNL1        0.0575
     22 C          11.8781   38.1452   26.2612 C.2     1  UNL1        0.2665
     23 O          12.9047   38.3309   25.6428 O.2     1  UNL1       -0.2709
     24 N          10.7113   38.6292   25.7913 N.am    1  UNL1       -0.2791
     25 H           9.8694   38.4243   26.2587 H       1  UNL1        0.1550
     26 C          10.6964   39.4232   24.6384 C.ar    1  UNL1        0.0793
     27 C          10.6991   40.8117   24.7371 C.ar    1  UNL1        0.0187
     28 C          10.6895   41.5550   23.5676 C.ar    1  UNL1        0.0220
     29 C          10.6668   40.8998   22.3508 C.ar    1  UNL1        0.0999
     30 N          10.6593   39.5822   22.2903 N.ar    1  UNL1       -0.2312
     31 C          10.6729   38.8369   23.3784 C.ar    1  UNL1        0.1517
     32 CL         10.6620   37.1068   23.2354 Cl      1  UNL1       -0.0600
@<TRIPOS>BOND
     1     7     8    1
     2     8    13   ar
     3     8     9   ar
     4     9    10   ar
     5    10    11   ar
     6    10    16    1
     7    11    12   ar
     8    11    15    1
     9    12    13   ar
    10    12     4    1
    11    13    14    1
    12     4     5    2
    13     4     6    2
    14     4     2    1
    15     2     1    1
    16     1    17    1
    17    17    18    2
    18    17    19    1
    19    19    20    1
    20    20    21    1
    21    20    22    1
    22    22    23    2
    23    22    24   am
    24    24    26    1
    25    26    31   ar
    26    26    27   ar
    27    27    28   ar
    28    28    29   ar
    29    29    30   ar
    30    30    31   ar
    31    31    32    1
    32     2     3    1
    33    24    25    1
@<TRIPOS>MOLECULE
ZINC11047432
 35 38 0 0 0
SMALL
GASTEIGER

@<TRIPOS>ATOM
      1 C          23.2060   38.6946   26.1775 C.2     1  UNL1        0.3417
      2 O          23.5263   37.6622   25.6236 O.2     1  UNL1       -0.2449
      3 N          24.6988   42.9988   27.4828 N.ar    1  UNL1       -0.2360
      4 C          24.6731   42.1943   26.3724 C.ar    1  UNL1        0.1611
      5 C          24.0380   40.9980   26.7638 C.ar    1  UNL1        0.0626
      6 C          23.6990   41.1341   28.1258 C.ar    1  UNL1        0.1234
      7 N          24.0944   42.3052   28.5378 N.ar    1  UNL1       -0.1664
      8 C          23.8664   39.9648   25.8118 C.ar    1  UNL1        0.0818
      9 C          24.3377   40.1815   24.5225 C.ar    1  UNL1        0.0288
     10 C          24.9576   41.3997   24.2159 C.ar    1  UNL1        0.1176
     11 N          25.1032   42.3485   25.1295 N.ar    1  UNL1       -0.2238
     12 C          25.4586   41.6313   22.8474 C.ar    1  UNL1        0.1630
     13 C          26.7387   41.9443   22.5075 C.ar    1  UNL1        0.0423
     14 C          26.7664   42.0716   21.1056 C.ar    1  UNL1        0.0438
     15 C          25.5138   41.8410   20.6629 C.ar    1  UNL1        0.1797
     16 O          24.7269   41.5756   21.7173 O.2     1  UNL1       -0.4489
     17 C          26.6397   44.2883   28.2252 C.3     1  UNL1        0.0264
     18 C          25.2660   44.3476   27.5539 C.3     1  UNL1        0.1069
     19 C          24.3377   45.2487   28.3707 C.3     1  UNL1        0.0264
     20 O          22.2486   38.6817   27.1253 O.3     1  UNL1       -0.4397
     21 C          22.3051   37.6111   28.1047 C.3     1  UNL1        0.2448
     22 C          23.6677   37.6277   28.8004 C.3     1  UNL1        0.0575
     23 C          21.2162   37.8083   29.1277 C.2     1  UNL1        0.2696
     24 O          20.1382   37.2749   28.9761 O.2     1  UNL1       -0.2708
     25 N          21.4410   38.5778   30.2111 N.am    1  UNL1       -0.2367
     26 C          20.4673   38.7543   31.1261 C.2     1  UNL1        0.3065
     27 O          19.3865   38.2195   30.9742 O.2     1  UNL1       -0.2524
     28 N          20.6920   39.5238   32.2095 N.am    1  UNL1       -0.2903
     29 H          22.3165   39.0110   30.3342 H       1  UNL1        0.1592
     30 H          21.5674   39.9572   32.3325 H       1  UNL1        0.1509
     31 C          19.6335   39.7156   33.2041 C.3     1  UNL1        0.0730
     32 C          19.6157   41.1827   33.6805 C.3     1  UNL1        0.0196
     33 C          19.2790   41.0880   35.1895 C.3     1  UNL1        0.0017
     34 C          20.0592   39.8265   35.6352 C.3     1  UNL1        0.0017
     35 C          19.9157   38.8533   34.4469 C.3     1  UNL1        0.0196
@<TRIPOS>BOND
     1    17    18    1
     2    18    19    1
     3    18     3    1
     4     3     7   ar
     5     3     4   ar
     6     4    11   ar
     7     4     5   ar
     8     5     6   ar
     9     5     8   ar
    10     6     7   ar
    11     8     9   ar
    12     8     1    1
    13     9    10   ar
    14    10    11   ar
    15    10    12    1
    16    12    16   ar
    17    12    13   ar
    18    13    14   ar
    19    14    15   ar
    20    15    16   ar
    21     1     2    2
    22     1    20    1
    23    20    21    1
    24    21    22    1
    25    21    23    1
    26    23    24    2
    27    23    25   am
    28    25    26   am
    29    26    27    2
    30    26    28   am
    31    28    31    1
    32    31    35    1
    33    31    32    1
    34    32    33    1
    35    33    34    1
    36    34    35    1
    37    25    29    1
    38    28    30    1
@<TRIPOS>MOLECULE
ZINC10775500
 35 38 0 0 0
SMALL
GASTEIGER

@<TRIPOS>ATOM
      1 C          19.5109   38.8354   31.2477 C.2     1  UNL1        0.3418
      2 O          20.0589   37.9568   31.8828 O.2     1  UNL1       -0.2449
      3 C          20.0037   40.6769   33.7293 C.3     1  UNL1        0.0540
      4 C          18.5037   40.7086   33.5867 C.ar    1  UNL1        0.0821
      5 C          17.7562   40.0294   32.6023 C.ar    1  UNL1        0.0570
      6 C          18.1009   39.1786   31.5261 C.ar    1  UNL1        0.0813
      7 C          17.0719   38.6797   30.7347 C.ar    1  UNL1        0.0257
      8 C          15.7505   39.0247   31.0341 C.ar    1  UNL1        0.0831
      9 N          15.4590   39.8223   32.0479 N.ar    1  UNL1       -0.2269
     10 C          16.3979   40.3301   32.8314 C.ar    1  UNL1        0.1607
     11 N          16.3655   41.1622   33.9211 N.ar    1  UNL1       -0.2323
     12 N          17.6813   41.3677   34.3524 N.ar    1  UNL1       -0.1723
     13 C          15.1622   41.7359   34.5287 C.3     1  UNL1        0.1554
     14 C          14.6525   38.4890   30.1935 C.ar    1  UNL1        0.0177
     15 C          13.3521   38.4351   30.6925 C.ar    1  UNL1        0.0015
     16 C          12.3332   37.9405   29.9038 C.ar    1  UNL1        0.0000
     17 C          12.6027   37.4880   28.6247 C.ar    1  UNL1        0.0000
     18 C          13.8922   37.5342   28.1262 C.ar    1  UNL1        0.0000
     19 C          14.9179   38.0320   28.9037 C.ar    1  UNL1        0.0015
     20 O          20.1887   39.4970   30.2896 O.3     1  UNL1       -0.4368
     21 C          20.0941   38.9774   28.9370 C.3     1  UNL1        0.2769
     22 C          21.0231   37.8007   28.7848 C.2     1  UNL1        0.2171
     23 O          20.5926   36.7339   28.4000 O.2     1  UNL1       -0.2874
     24 C          22.4497   37.9455   29.1023 C.ar    1  UNL1        0.0396
     25 C          23.3257   38.4991   28.1606 C.ar    1  UNL1        0.0018
     26 C          24.6627   38.6349   28.4601 C.ar    1  UNL1       -0.0153
     27 C          25.1472   38.2233   29.6951 C.ar    1  UNL1       -0.0774
     28 C          24.2818   37.6645   30.6377 C.ar    1  UNL1        0.0348
     29 C          22.9374   37.5307   30.3473 C.ar    1  UNL1        0.0164
     30 O          26.4663   38.3594   29.9843 O.co2   1  UNL1       -0.8721
     31 N          24.7755   37.2451   31.8804 N.am    1  UNL1       -0.2849
     32 C          25.0824   35.9481   32.0808 C.2     1  UNL1        0.2266
     33 O          25.0151   35.1600   31.1613 O.2     1  UNL1       -0.2748
     34 C          25.5089   35.4770   33.4473 C.3     1  UNL1        0.0949
     35 H          24.8982   37.8979   32.6071 H       1  UNL1        0.1548
@<TRIPOS>UNITY_ATOM_ATTR
30 1
charge -1
@<TRIPOS>BOND
     1     3     4    1
     2     4    12   ar
     3     4     5   ar
     4     5    10   ar
     5     5     6   ar
     6     6     7   ar
     7     6     1    1
     8     7     8   ar
     9     8     9   ar
    10     8    14    1
    11     9    10   ar
    12    10    11   ar
    13    11    12   ar
    14    11    13    1
    15    14    19   ar
    16    14    15   ar
    17    15    16   ar
    18    16    17   ar
    19    17    18   ar
    20    18    19   ar
    21     1     2    2
    22     1    20    1
    23    20    21    1
    24    21    22    1
    25    22    23    2
    26    22    24    1
    27    24    29   ar
    28    24    25   ar
    29    25    26   ar
    30    26    27   ar
    31    27    28   ar
    32    27    30    1
    33    28    29   ar
    34    28    31    1
    35    31    32   am
    36    32    33    2
    37    32    34    1
    38    31    35    1
@<TRIPOS>MOLECULE
ZINC31792621
 34 37 0 0 0
SMALL
GASTEIGER

@<TRIPOS>ATOM
      1 C          20.5082   39.5385   28.5091 C.3     1  UNL1        0.1915
      2 N          24.4917   39.0595   27.1866 N.pl3   1  UNL1       -0.2811
      3 C          23.6283   37.8707   27.2164 C.3     1  UNL1        0.1537
      4 C          22.1620   38.3089   27.2372 C.3     1  UNL1        0.1278
      5 N          21.9239   39.1587   28.4122 N.4     1  UNL1        0.2855
      6 C          22.7874   40.3474   28.3825 C.3     1  UNL1        0.1278
      7 C          24.2537   39.9092   28.3617 C.3     1  UNL1        0.1537
      8 H          22.1604   38.6185   29.2444 H       1  UNL1        0.2074
      9 C          26.3323   39.6176   24.7884 C.3     1  UNL1        0.1333
     10 N          26.6765   38.9353   26.0382 N.ar    1  UNL1       -0.2944
     11 C          27.8923   38.4195   26.3705 C.ar    1  UNL1        0.1812
     12 N          27.8099   37.8872   27.5580 N.ar    1  UNL1       -0.1997
     13 C          26.5627   38.0412   28.0301 C.ar    1  UNL1        0.2556
     14 C          25.8368   38.6985   27.0946 C.ar    1  UNL1        0.1556
     15 N          26.0671   37.5744   29.3451 N.pl3   1  UNL1        0.0786
     16 O          26.1979   38.2786   30.3301 O.2     1  UNL1       -0.1245
     17 O          25.5287   36.4861   29.4416 O.2     1  UNL1       -0.1245
     18 C          19.8660   38.7959   29.6523 C.2     1  UNL1        0.2789
     19 O          19.7893   37.5858   29.6226 O.2     1  UNL1       -0.2687
     20 N          19.3768   39.4763   30.7079 N.am    1  UNL1       -0.2934
     21 H          19.4390   40.4585   30.7321 H       1  UNL1        0.1502
     22 C          18.7524   38.7543   31.8192 C.3     1  UNL1        0.1231
     23 C          17.2602   38.9609   31.7773 C.ar    1  UNL1        0.0003
     24 C          16.5895   39.3849   32.9093 C.ar    1  UNL1       -0.0000
     25 C          15.2218   39.5793   32.8706 C.ar    1  UNL1        0.0294
     26 C          14.5218   39.3391   31.7004 C.ar    1  UNL1        0.1401
     27 C          15.1938   38.9095   30.5687 C.ar    1  UNL1        0.0294
     28 C          16.5624   38.7209   30.6082 C.ar    1  UNL1       -0.0000
     29 F          13.1841   39.5244   31.6627 F       1  UNL1       -0.2042
     30 C          19.2952   39.2755   33.1249 C.ar    1  UNL1        0.0292
     31 C          19.5990   38.5934   34.2561 C.ar    1  UNL1        0.0046
     32 C          20.0897   39.2875   35.3461 C.ar    1  UNL1        0.0072
     33 C          20.2525   40.6299   35.2516 C.ar    1  UNL1        0.0352
     34 S          19.7043   40.9518   33.5834 S.2     1  UNL1       -0.0888
@<TRIPOS>UNITY_ATOM_ATTR
5 1
charge 1
@<TRIPOS>BOND
     1     9    10    1
     2    10    14   ar
     3    10    11   ar
     4    11    12   ar
     5    12    13   ar
     6    13    14   ar
     7    13    15    1
     8    14     2    1
     9     2     7    1
    10     2     3    1
    11     3     4    1
    12     4     5    1
    13     5     6    1
    14     5     1    1
    15     6     7    1
    16     1    18    1
    17    18    19    2
    18    18    20   am
    19    20    22    1
    20    22    23    1
    21    22    30    1
    22    23    28   ar
    23    23    24   ar
    24    24    25   ar
    25    25    26   ar
    26    26    27   ar
    27    26    29    1
    28    27    28   ar
    29    30    34   ar
    30    30    31   ar
    31    31    32   ar
    32    32    33   ar
    33    33    34   ar
    34    15    16    2
    35    15    17    2
    36     5     8    1
    37    20    21    1
@<TRIPOS>MOLECULE
ZINC25082838
 36 40 0 0 0
SMALL
GASTEIGER

@<TRIPOS>ATOM
      1 N          19.9062   38.7687   31.1792 N.am    1  UNL1       -0.2791
      2 C          20.3762   38.8446   29.9183 C.2     1  UNL1        0.2675
      3 O          19.6358   39.1796   29.0116 O.2     1  UNL1       -0.2682
      4 H          20.5169   38.5506   31.9200 H       1  UNL1        0.1552
      5 C          14.9712   38.3498   30.2169 C.ar    1  UNL1        0.1773
      6 C          16.2444   38.7156   30.8527 C.ar    1  UNL1        0.0440
      7 C          17.5895   38.4787   30.5871 C.ar    1  UNL1        0.0179
      8 C          18.5501   38.9999   31.4354 C.ar    1  UNL1        0.0507
      9 C          18.1711   39.7548   32.5459 C.ar    1  UNL1        0.0162
     10 C          16.8533   39.9918   32.8142 C.ar    1  UNL1        0.0198
     11 C          15.8687   39.4790   31.9752 C.ar    1  UNL1        0.0756
     12 N          14.4979   39.5288   31.9578 N.ar    1  UNL1       -0.2755
     13 N          14.0214   38.8885   30.9524 N.ar    1  UNL1       -0.1660
     14 H          13.9502   39.9955   32.6297 H       1  UNL1        0.1889
     15 C          14.7933   37.5461   28.9965 C.2     1  UNL1        0.3610
     16 O          15.3291   36.4594   28.9011 O.2     1  UNL1       -0.2431
     17 C          12.7359   37.3981   27.7933 C.3     1  UNL1        0.2560
     18 O          14.0361   38.0154   27.9848 O.3     1  UNL1       -0.4402
     19 C          21.7770   38.5243   29.6388 C.2     1  UNL1        0.1426
     20 C          22.6366   38.2783   30.6650 C.2     1  UNL1        0.0614
     21 C          23.9539   37.8380   30.3944 C.ar    1  UNL1        0.1472
     22 C          24.3831   36.5268   30.3650 C.ar    1  UNL1        0.0408
     23 C          25.7523   36.5617   30.0585 C.ar    1  UNL1        0.0438
     24 C          26.0971   37.8604   29.9163 C.ar    1  UNL1        0.1796
     25 O          25.0134   38.6249   30.1135 O.2     1  UNL1       -0.4504
     26 N          22.2326   38.4711   28.3157 N.ar    1  UNL1       -0.1869
     27 C          22.8125   39.4748   27.5972 C.ar    1  UNL1        0.1883
     28 N          23.0832   38.9848   26.4047 N.ar    1  UNL1       -0.1078
     29 N          22.7092   37.7590   26.3264 N.ar    1  UNL1       -0.0223
     30 N          22.1856   37.3731   27.4389 N.ar    1  UNL1       -0.0384
     31 C          23.0872   40.8503   28.0678 C.ar    1  UNL1        0.0377
     32 C          24.4028   41.2883   28.2225 C.ar    1  UNL1        0.0031
     33 C          24.6522   42.5736   28.6575 C.ar    1  UNL1        0.0001
     34 C          23.6011   43.4242   28.9499 C.ar    1  UNL1        0.0000
     35 C          22.2943   42.9945   28.8033 C.ar    1  UNL1        0.0001
     36 C          22.0316   41.7130   28.3643 C.ar    1  UNL1        0.0031
@<TRIPOS>BOND
     1    17    18    1
     2    18    15    1
     3    15    16    2
     4    15     5    1
     5     5    13   ar
     6     5     6   ar
     7     6    11   ar
     8     6     7   ar
     9     7     8   ar
    10     8     9   ar
    11     8     1    1
    12     9    10   ar
    13    10    11   ar
    14    11    12   ar
    15    12    13   ar
    16     1     2   am
    17     2     3    2
    18     2    19    1
    19    19    20    2
    20    19    26    1
    21    20    21    1
    22    21    25   ar
    23    21    22   ar
    24    22    23   ar
    25    23    24   ar
    26    24    25   ar
    27    26    30   ar
    28    26    27   ar
    29    27    28   ar
    30    27    31    1
    31    28    29   ar
    32    29    30   ar
    33    31    36   ar
    34    31    32   ar
    35    32    33   ar
    36    33    34   ar
    37    34    35   ar
    38    35    36   ar
    39    12    14    1
    40     1     4    1
@<TRIPOS>MOLECULE
ZINC29558806
 33 36 0 0 0
SMALL
GASTEIGER

@<TRIPOS>ATOM
      1 C          17.7938   39.8981   33.1268 C.ar    1  UNL1        0.0894
      2 C          18.6990   40.2831   34.1001 C.ar    1  UNL1        0.0169
      3 C          20.0544   40.0815   33.9113 C.ar    1  UNL1        0.0014
      4 C          20.5126   39.4945   32.7497 C.ar    1  UNL1        0.0046
      5 C          19.6054   39.1092   31.7616 C.ar    1  UNL1        0.0546
      6 C          18.2385   39.3098   31.9612 C.ar    1  UNL1        0.0214
      7 C          20.0897   38.4853   30.5118 C.2     1  UNL1        0.2461
      8 O          19.2943   38.0925   29.6808 O.2     1  UNL1       -0.2701
      9 N          21.4130   38.3521   30.2939 N.am    1  UNL1       -0.2969
     10 H          22.0572   38.6704   30.9669 H       1  UNL1        0.1501
     11 C          21.8929   37.7339   29.0554 C.3     1  UNL1        0.1167
     12 C          23.0066   38.5678   28.4764 C.ar    1  UNL1        0.0018
     13 C          24.1459   37.9678   27.9557 C.ar    1  UNL1        0.0182
     14 C          25.1478   38.7597   27.4323 C.ar    1  UNL1        0.1000
     15 N          25.0353   40.0747   27.4212 N.ar    1  UNL1       -0.2292
     16 C          23.9653   40.6839   27.9079 C.ar    1  UNL1        0.1314
     17 C          22.9147   39.9474   28.4463 C.ar    1  UNL1        0.0317
     18 N          23.8883   42.0714   27.8756 N.pl3   1  UNL1       -0.2933
     19 C          22.6385   42.5503   28.5197 C.3     1  UNL1        0.0922
     20 C          22.9598   44.0266   28.8631 C.3     1  UNL1        0.0232
     21 C          24.4456   43.9676   29.2859 C.3     1  UNL1        0.0232
     22 C          24.9963   42.6817   28.6422 C.3     1  UNL1        0.0922
     23 S          16.0693   40.1594   33.3773 S.O2    1  UNL1       -0.0577
     24 O          15.5243   38.9115   33.7834 O.2     1  UNL1       -0.1842
     25 O          15.9471   41.3364   34.1640 O.2     1  UNL1       -0.1842
     26 N          15.4070   40.5069   31.8998 N.pl3   1  UNL1       -0.5341
     27 C          12.3312   38.6133   31.2132 C.ar    1  UNL1       -0.0017
     28 C          12.7323   37.8412   30.1385 C.ar    1  UNL1        0.0022
     29 C          14.0197   37.9512   29.6459 C.ar    1  UNL1        0.0278
     30 C          14.9105   38.8346   30.2275 C.ar    1  UNL1        0.1181
     31 C          14.5093   39.6125   31.3082 C.ar    1  UNL1       -0.0842
     32 C          13.2171   39.4949   31.8021 C.ar    1  UNL1       -0.0217
     33 F          16.1687   38.9415   29.7469 F       1  UNL1       -0.2061
@<TRIPOS>UNITY_ATOM_ATTR
26 1
charge -1
@<TRIPOS>BOND
     1    27    32   ar
     2    27    28   ar
     3    28    29   ar
     4    29    30   ar
     5    30    31   ar
     6    30    33    1
     7    31    32   ar
     8    31    26    1
     9    26    23    1
    10    23    24    2
    11    23    25    2
    12    23     1    1
    13     1     6   ar
    14     1     2   ar
    15     2     3   ar
    16     3     4   ar
    17     4     5   ar
    18     5     6   ar
    19     5     7    1
    20     7     8    2
    21     7     9   am
    22     9    11    1
    23    11    12    1
    24    12    17   ar
    25    12    13   ar
    26    13    14   ar
    27    14    15   ar
    28    15    16   ar
    29    16    17   ar
    30    16    18    1
    31    18    22    1
    32    18    19    1
    33    19    20    1
    34    20    21    1
    35    21    22    1
    36     9    10    1
@<TRIPOS>MOLECULE
ZINC16255096
 35 38 0 0 0
SMALL
GASTEIGER

@<TRIPOS>ATOM
      1 N          24.0789   39.0094   26.7582 N.am    1  UNL1       -0.2386
      2 C          24.6871   39.7645   27.6944 C.2     1  UNL1        0.2186
      3 O          24.8961   39.4686   28.8513 O.2     1  UNL1       -0.2756
      4 C          25.0490   41.0632   27.0018 C.3     1  UNL1        0.0261
      5 N          24.5622   40.8689   25.6250 N.am    1  UNL1       -0.6059
      6 C          24.0154   39.6405   25.5802 C.2     1  UNL1        0.1384
      7 O          23.5149   39.1599   24.5823 O.2     1  UNL1       -0.2967
      8 C          26.5415   41.2716   27.0118 C.ar    1  UNL1       -0.0295
      9 C          27.2020   41.5960   25.8417 C.ar    1  UNL1       -0.0051
     10 C          28.5705   41.7913   25.8518 C.ar    1  UNL1       -0.0004
     11 C          29.2797   41.6533   27.0303 C.ar    1  UNL1       -0.0000
     12 C          28.6198   41.3237   28.1995 C.ar    1  UNL1       -0.0004
     13 C          27.2508   41.1326   28.1902 C.ar    1  UNL1       -0.0051
     14 C          24.3483   42.2281   27.6524 C.ar    1  UNL1       -0.0295
     15 C          23.1051   42.0514   28.2306 C.ar    1  UNL1       -0.0051
     16 C          22.4643   43.1188   28.8312 C.ar    1  UNL1       -0.0004
     17 C          23.0624   44.3649   28.8456 C.ar    1  UNL1       -0.0000
     18 C          24.3034   44.5428   28.2629 C.ar    1  UNL1       -0.0004
     19 C          24.9461   43.4743   27.6660 C.ar    1  UNL1       -0.0051
     20 C          23.5554   37.6627   26.9997 C.3     1  UNL1        0.1682
     21 C          22.0655   37.7340   27.2151 C.2     1  UNL1        0.1934
     22 O          21.3084   37.3794   26.3369 O.2     1  UNL1       -0.2895
     23 C          20.5213   39.1753   30.8934 C.ar    1  UNL1       -0.0045
     24 C          21.6887   38.4320   30.8810 C.ar    1  UNL1       -0.0026
     25 C          22.1969   37.9597   29.6893 C.ar    1  UNL1        0.0026
     26 C          21.5296   38.2338   28.4913 C.ar    1  UNL1        0.0364
     27 C          20.3534   38.9901   28.5116 C.ar    1  UNL1        0.0026
     28 C          19.8552   39.4511   29.7119 C.ar    1  UNL1       -0.0026
     29 C          20.8691   39.2188   33.3483 C.3     1  UNL1        0.0262
     30 C          19.9728   39.6875   32.2003 C.3     1  UNL1        0.0941
     31 N          18.6165   39.1698   32.3970 N.am    1  UNL1       -0.3022
     32 C          17.6858   39.9320   33.0047 C.2     1  UNL1        0.2232
     33 O          17.9711   41.0466   33.3884 O.2     1  UNL1       -0.2751
     34 C          16.2906   39.3995   33.2071 C.3     1  UNL1        0.0946
     35 H          18.3849   38.2651   32.0854 H       1  UNL1        0.1497
@<TRIPOS>UNITY_ATOM_ATTR
5 1
charge -1
@<TRIPOS>BOND
     1    29    30    1
     2    30    23    1
     3    30    31    1
     4    23    28   ar
     5    23    24   ar
     6    24    25   ar
     7    25    26   ar
     8    26    27   ar
     9    26    21    1
    10    27    28   ar
    11    21    22    2
    12    21    20    1
    13    20     1    1
    14     1     6   am
    15     1     2   am
    16     2     3    2
    17     2     4    1
    18     4     5    1
    19     4     8    1
    20     4    14    1
    21     5     6    1
    22     6     7    2
    23     8    13   ar
    24     8     9   ar
    25     9    10   ar
    26    10    11   ar
    27    11    12   ar
    28    12    13   ar
    29    14    19   ar
    30    14    15   ar
    31    15    16   ar
    32    16    17   ar
    33    17    18   ar
    34    18    19   ar
    35    31    32   am
    36    32    33    2
    37    32    34    1
    38    31    35    1
@<TRIPOS>MOLECULE
ZINC09561788
 33 35 0 0 0
SMALL
GASTEIGER

@<TRIPOS>ATOM
      1 C          21.9272   38.7401   30.3409 C.2     1  UNL1        0.2541
      2 O          22.7855   38.1770   30.9937 O.2     1  UNL1       -0.2696
      3 N          22.2130   39.2012   29.1071 N.am    1  UNL1       -0.2802
      4 H          21.5020   39.5958   28.5521 H       1  UNL1        0.1552
      5 N          19.1980   39.5383   32.7410 N.ar    1  UNL1       -0.3112
      6 C          20.4101   39.3553   32.1990 C.ar    1  UNL1        0.0847
      7 C          20.5789   38.9232   30.9004 C.ar    1  UNL1        0.1098
      8 C          19.3847   38.6424   30.0862 C.ar    1  UNL1        0.2043
      9 O          19.4770   38.2537   28.9350 O.2     1  UNL1       -0.2863
     10 C          18.0731   38.8517   30.7242 C.ar    1  UNL1        0.0733
     11 C          18.0292   39.3012   32.0557 C.ar    1  UNL1        0.1465
     12 N          16.8552   39.4941   32.6445 N.ar    1  UNL1       -0.2325
     13 C          15.7202   39.2755   32.0145 C.ar    1  UNL1        0.0610
     14 C          15.6911   38.8320   30.7019 C.ar    1  UNL1        0.0150
     15 C          16.8829   38.6127   30.0345 C.ar    1  UNL1        0.0074
     16 C          14.4202   39.5139   32.7387 C.3     1  UNL1        0.0521
     17 C          19.8468   39.0234   35.0422 C.3     1  UNL1        0.0265
     18 C          19.1143   40.0063   34.1267 C.3     1  UNL1        0.1076
     19 C          23.5197   39.1190   28.6152 C.ar    1  UNL1        0.0519
     20 C          23.9409   37.9773   27.9454 C.ar    1  UNL1        0.0144
     21 C          25.2298   37.9017   27.4559 C.ar    1  UNL1       -0.0017
     22 C          26.1047   38.9566   27.6420 C.ar    1  UNL1       -0.0032
     23 C          25.6905   40.0922   28.3132 C.ar    1  UNL1        0.1195
     24 C          24.4007   40.1764   28.8003 C.ar    1  UNL1        0.0343
     25 C          27.5125   38.8683   27.1114 C.3     1  UNL1        0.0324
     26 S          26.8089   41.4335   28.5470 S.O2    1  UNL1        0.0630
     27 O          27.1433   41.4474   29.9280 O.2     1  UNL1       -0.1528
     28 O          27.7916   41.3255   27.5263 O.2     1  UNL1       -0.1528
     29 N          25.9687   42.8291   28.2494 N.3     1  UNL1       -0.1555
     30 C          25.4027   43.5949   29.3628 C.3     1  UNL1        0.0958
     31 C          23.9195   43.8602   29.0973 C.3     1  UNL1        0.0206
     32 C          25.7914   43.2980   26.8729 C.3     1  UNL1        0.0958
     33 C          26.6569   44.5382   26.6411 C.3     1  UNL1        0.0206
@<TRIPOS>BOND
     1    17    18    1
     2    18     5    1
     3     5    11   ar
     4     5     6   ar
     5     6     7   ar
     6     7     8   ar
     7     7     1    1
     8     8     9    2
     9     8    10   ar
    10    10    15   ar
    11    10    11   ar
    12    11    12   ar
    13    12    13   ar
    14    13    14   ar
    15    13    16    1
    16    14    15   ar
    17     1     2    2
    18     1     3   am
    19     3    19    1
    20    19    24   ar
    21    19    20   ar
    22    20    21   ar
    23    21    22   ar
    24    22    23   ar
    25    22    25    1
    26    23    24   ar
    27    23    26    1
    28    26    27    2
    29    26    28    2
    30    26    29    1
    31    29    30    1
    32    29    32    1
    33    30    31    1
    34    32    33    1
    35     3     4    1
@<TRIPOS>MOLECULE
ZINC10379638
 34 36 0 0 0
SMALL
GASTEIGER

@<TRIPOS>ATOM
      1 C          22.7899   37.5938   29.3508 C.2     1  UNL1        0.3384
      2 O          23.6923   36.9669   29.8531 O.2     1  UNL1       -0.2482
      3 O          21.7898   38.0602   30.1151 O.3     1  UNL1       -0.4372
      4 C          20.4571   38.0431   29.5394 C.3     1  UNL1        0.2924
      5 N          18.1731   38.4542   30.3957 N.am    1  UNL1       -0.2974
      6 C          19.4929   38.7125   30.4845 C.2     1  UNL1        0.2674
      7 O          19.9047   39.4838   31.3251 O.2     1  UNL1       -0.2711
      8 H          17.8393   37.8249   29.7161 H       1  UNL1        0.1499
      9 C          17.2352   39.1096   31.3106 C.3     1  UNL1        0.1165
     10 C          11.8173   37.8978   29.7014 C.3     1  UNL1        0.0334
     11 C          13.2296   38.2143   30.1214 C.ar    1  UNL1        0.0056
     12 C          14.2848   37.9127   29.2811 C.ar    1  UNL1       -0.0023
     13 C          15.5799   38.2076   29.6638 C.ar    1  UNL1       -0.0028
     14 C          15.8222   38.7943   30.8922 C.ar    1  UNL1       -0.0004
     15 C          14.7689   39.0968   31.7338 C.ar    1  UNL1        0.0267
     16 C          13.4706   38.8069   31.3491 C.ar    1  UNL1        0.1359
     17 F          12.4401   39.1018   32.1714 F       1  UNL1       -0.2045
     18 C          22.7869   37.8520   27.8660 C.3     1  UNL1        0.2089
     19 N          23.8996   38.7412   27.5228 N.am    1  UNL1       -0.2360
     20 C          23.9528   40.0493   27.8482 C.2     1  UNL1        0.2111
     21 O          23.1216   40.6889   28.4563 O.2     1  UNL1       -0.2762
     22 C          25.2671   40.5498   27.2942 C.3     1  UNL1       -0.0137
     23 C          26.1587   41.0602   28.4210 C.3     1  UNL1       -0.0115
     24 C          25.4977   42.2690   29.0885 C.3     1  UNL1       -0.0012
     25 C          25.2812   43.3695   28.0480 C.3     1  UNL1       -0.0001
     26 C          24.3685   42.8502   26.9352 C.3     1  UNL1       -0.0012
     27 C          25.0255   41.6435   26.2598 C.3     1  UNL1       -0.0115
     28 N          25.8621   39.3655   26.6626 N.am    1  UNL1       -0.6124
     29 C          24.9921   38.3550   26.8525 C.2     1  UNL1        0.1381
     30 O          25.1767   37.2206   26.4571 O.2     1  UNL1       -0.2967
     31 C          24.6303   44.5821   28.7166 C.3     1  UNL1       -0.0000
     32 C          24.9365   45.8397   27.9008 C.3     1  UNL1       -0.0000
     33 C          23.1159   44.3749   28.7851 C.3     1  UNL1       -0.0000
     34 C          25.1875   44.7442   30.1322 C.3     1  UNL1       -0.0000
@<TRIPOS>UNITY_ATOM_ATTR
28 1
charge -1
@<TRIPOS>BOND
     1    10    11    1
     2    11    16   ar
     3    11    12   ar
     4    12    13   ar
     5    13    14   ar
     6    14    15   ar
     7    14     9    1
     8    15    16   ar
     9    16    17    1
    10     9     5    1
    11     5     6   am
    12     6     7    2
    13     6     4    1
    14     4     3    1
    15     3     1    1
    16     1     2    2
    17     1    18    1
    18    18    19    1
    19    19    29   am
    20    19    20   am
    21    20    21    2
    22    20    22    1
    23    22    27    1
    24    22    23    1
    25    22    28    1
    26    23    24    1
    27    24    25    1
    28    25    26    1
    29    25    31    1
    30    26    27    1
    31    31    32    1
    32    31    33    1
    33    31    34    1
    34    28    29    1
    35    29    30    2
    36     5     8    1
@<TRIPOS>MOLECULE
ZINC26640556
 33 36 0 0 0
SMALL
GASTEIGER

@<TRIPOS>ATOM
      1 C          12.7614   37.8921   29.1483 C.2     1  UNL1        0.2407
      2 O          13.8174   37.6725   28.5946 O.2     1  UNL1       -0.2737
      3 N          12.7459   38.4786   30.3616 N.am    1  UNL1       -0.2387
      4 C          13.9042   38.8211   30.9594 C.2     1  UNL1        0.3102
      5 O          14.9628   38.6010   30.4043 O.2     1  UNL1       -0.2521
      6 N          13.8887   39.4077   32.1727 N.am    1  UNL1       -0.2680
      7 H          11.8884   38.6569   30.8112 H       1  UNL1        0.1591
      8 H          13.0381   39.5153   32.6567 H       1  UNL1        0.1564
      9 C          15.0817   39.8638   32.7447 C.ar    1  UNL1        0.0517
     10 C          15.8594   39.0048   33.5099 C.ar    1  UNL1        0.0164
     11 C          17.0366   39.4579   34.0726 C.ar    1  UNL1        0.0253
     12 C          17.4408   40.7655   33.8747 C.ar    1  UNL1        0.1430
     13 C          16.6685   41.6233   33.1132 C.ar    1  UNL1        0.0253
     14 C          15.4904   41.1763   32.5478 C.ar    1  UNL1        0.0164
     15 N          18.7029   41.2478   34.4793 N.pl3   1  UNL1        0.0577
     16 O          19.3398   40.5210   35.2205 O.2     1  UNL1       -0.1261
     17 O          19.1044   42.3716   34.2355 O.2     1  UNL1       -0.1261
     18 C          11.4662   37.5092   28.4798 C.3     1  UNL1        0.1502
     19 S          11.8199   36.6131   26.9476 S.3     1  UNL1       -0.0658
     20 C          10.8676   39.4746   24.4731 C.ar    1  UNL1        0.1485
     21 N          12.1659   39.4342   24.3710 N.ar    1  UNL1       -0.1325
     22 N          12.6413   38.5250   25.1451 N.ar    1  UNL1       -0.1224
     23 C          11.6626   37.9254   25.7823 C.ar    1  UNL1        0.1933
     24 N          10.5001   38.5150   25.3757 N.ar    1  UNL1       -0.2954
     25 C           9.1414   38.1879   25.8150 C.3     1  UNL1        0.0886
     26 C           8.5896   36.8114   25.4384 C.3     1  UNL1        0.0246
     27 C           8.0611   38.0659   24.7384 C.3     1  UNL1        0.0246
     28 C           9.9422   40.4062   23.7337 C.3     1  UNL1        0.0987
     29 C          12.1024   43.0265   22.0077 C.ar    1  UNL1        0.0072
     30 C          11.4326   42.4019   23.0430 C.ar    1  UNL1        0.0031
     31 C          10.7429   41.2633   22.7875 C.ar    1  UNL1        0.0149
     32 S          11.0357   41.0383   21.0409 S.2     1  UNL1       -0.0903
     33 C          12.0499   42.4819   20.7676 C.ar    1  UNL1        0.0351
@<TRIPOS>BOND
     1    29    33   ar
     2    29    30   ar
     3    30    31   ar
     4    31    32   ar
     5    31    28    1
     6    32    33   ar
     7    28    20    1
     8    20    24   ar
     9    20    21   ar
    10    21    22   ar
    11    22    23   ar
    12    23    24   ar
    13    23    19    1
    14    24    25    1
    15    25    27    1
    16    25    26    1
    17    26    27    1
    18    19    18    1
    19    18     1    1
    20     1     2    2
    21     1     3   am
    22     3     4   am
    23     4     5    2
    24     4     6   am
    25     6     9    1
    26     9    14   ar
    27     9    10   ar
    28    10    11   ar
    29    11    12   ar
    30    12    13   ar
    31    12    15    1
    32    13    14   ar
    33    15    16    2
    34    15    17    2
    35     3     7    1
    36     6     8    1
@<TRIPOS>MOLECULE
ZINC28837053
 34 36 0 0 0
SMALL
GASTEIGER

@<TRIPOS>ATOM
      1 N          23.9319   38.9293   26.3183 N.am    1  UNL1       -0.2779
      2 C          23.9946   39.5512   27.5123 C.2     1  UNL1        0.2519
      3 O          24.6965   40.5350   27.6494 O.2     1  UNL1       -0.2697
      4 H          23.3141   38.1738   26.1887 H       1  UNL1        0.1553
      5 C          25.1008   40.7606   23.3497 C.ar    1  UNL1        0.1236
      6 C          26.3544   40.2049   23.1717 C.ar    1  UNL1        0.0231
      7 C          26.8094   39.2256   24.0351 C.ar    1  UNL1        0.0393
      8 C          26.0089   38.7982   25.0820 C.ar    1  UNL1        0.1471
      9 C          24.7459   39.3577   25.2618 C.ar    1  UNL1        0.0860
     10 C          24.2940   40.3362   24.3884 C.ar    1  UNL1        0.0377
     11 O          26.4549   37.8348   25.9317 O.3     1  UNL1       -0.5043
     12 H          27.3047   37.4592   25.8096 H       1  UNL1        0.2922
     13 S          24.5279   42.0083   22.2453 S.O2    1  UNL1        0.0633
     14 O          23.1090   41.9304   22.2453 O.2     1  UNL1       -0.1528
     15 O          25.2254   43.1999   22.5816 O.2     1  UNL1       -0.1528
     16 N          25.0253   41.5819   20.7244 N.3     1  UNL1       -0.1555
     17 C          25.9820   42.7791   18.8184 C.3     1  UNL1        0.0206
     18 C          26.2662   42.1360   20.1773 C.3     1  UNL1        0.0958
     19 C          24.2243   40.6506   19.9260 C.3     1  UNL1        0.0958
     20 C          24.8998   39.2778   19.9140 C.3     1  UNL1        0.0206
     21 C          23.2126   39.0392   28.6520 C.ar    1  UNL1        0.0824
     22 C          23.5769   37.9765   29.5094 C.ar    1  UNL1        0.0848
     23 N          22.6277   37.8251   30.3920 N.ar    1  UNL1       -0.1696
     24 N          21.6246   38.7693   30.1459 N.ar    1  UNL1       -0.2338
     25 C          21.9897   39.5120   29.0853 C.ar    1  UNL1        0.0664
     26 C          21.2065   40.6481   28.4794 C.3     1  UNL1        0.0523
     27 C          24.8408   37.1607   29.4202 C.3     1  UNL1        0.0541
     28 C          20.4422   38.9202   30.8842 C.ar    1  UNL1        0.0826
     29 C          19.2300   38.5089   30.3467 C.ar    1  UNL1        0.0214
     30 C          18.0669   38.6544   31.0771 C.ar    1  UNL1        0.0312
     31 C          18.1080   39.2195   32.3407 C.ar    1  UNL1        0.1402
     32 C          19.3155   39.6348   32.8766 C.ar    1  UNL1        0.0312
     33 C          20.4813   39.4865   32.1513 C.ar    1  UNL1        0.0214
     34 F          16.9684   39.3661   33.0515 F       1  UNL1       -0.2042
@<TRIPOS>BOND
     1    17    18    1
     2    18    16    1
     3    16    19    1
     4    16    13    1
     5    19    20    1
     6    13    14    2
     7    13    15    2
     8    13     5    1
     9     5    10   ar
    10     5     6   ar
    11     6     7   ar
    12     7     8   ar
    13     8     9   ar
    14     8    11    1
    15     9    10   ar
    16     9     1    1
    17     1     2   am
    18     2     3    2
    19     2    21    1
    20    21    25   ar
    21    21    22   ar
    22    22    23   ar
    23    22    27    1
    24    23    24   ar
    25    24    25   ar
    26    24    28    1
    27    25    26    1
    28    28    33   ar
    29    28    29   ar
    30    29    30   ar
    31    30    31   ar
    32    31    32   ar
    33    31    34    1
    34    32    33   ar
    35     1     4    1
    36    11    12    1
@<TRIPOS>MOLECULE
ZINC29272147
 33 37 0 0 0
SMALL
GASTEIGER

@<TRIPOS>ATOM
      1 C          23.6254   38.7287   26.9639 C.3     1  UNL1        0.0676
      2 C          23.1106   38.3929   25.5629 C.3     1  UNL1        0.0970
      3 N          23.3137   39.3203   23.2787 N.am    1  UNL1       -0.2827
      4 C          23.7239   39.3383   24.5624 C.2     1  UNL1        0.2270
      5 O          24.5868   40.1156   24.9124 O.2     1  UNL1       -0.2747
      6 H          22.6704   38.6388   22.9770 H       1  UNL1        0.1549
      7 C          25.0898   40.1534   21.8540 C.ar    1  UNL1        0.0194
      8 C          25.5288   41.1136   20.9596 C.ar    1  UNL1        0.0402
      9 C          24.6818   42.1609   20.6203 C.ar    1  UNL1        0.1656
     10 N          23.4669   42.2440   21.1375 N.ar    1  UNL1       -0.2237
     11 C          23.0128   41.3454   21.9883 C.ar    1  UNL1        0.1152
     12 C          23.8025   40.2708   22.3740 C.ar    1  UNL1        0.0699
     13 N          25.1189   43.1400   19.7211 N.ar    1  UNL1       -0.1902
     14 C          25.7075   42.9350   18.5261 C.ar    1  UNL1        0.2030
     15 N          25.9621   44.1030   17.9944 N.ar    1  UNL1       -0.2004
     16 C          25.5536   45.0717   18.8137 C.ar    1  UNL1        0.2214
     17 N          25.0260   44.5323   19.8813 N.ar    1  UNL1       -0.1395
     18 S          22.2602   39.3691   27.9723 S.3     1  UNL1       -0.1317
     19 C          21.6696   37.9167   28.8847 C.3     1  UNL1        0.1211
     20 C          20.6309   38.3432   29.8899 C.ar    1  UNL1        0.1316
     21 N          21.0277   38.7880   31.1100 N.ar    1  UNL1       -0.1939
     22 C          20.1331   39.1782   32.0379 C.ar    1  UNL1        0.2818
     23 O          20.5036   39.5750   33.1292 O.2     1  UNL1       -0.2651
     24 C          18.7376   39.1175   31.7187 C.ar    1  UNL1        0.0759
     25 C          17.5960   39.4877   32.5683 C.ar    1  UNL1       -0.0136
     26 C          16.3703   39.3402   32.0367 C.ar    1  UNL1        0.0049
     27 S          16.6528   38.7079   30.3989 S.2     1  UNL1       -0.0745
     28 C          18.4245   38.6462   30.4370 C.ar    1  UNL1        0.0919
     29 N          19.3657   38.2776   29.5713 N.ar    1  UNL1       -0.3361
     30 C          15.2830   39.7524   32.9922 C.3     1  UNL1        0.0330
     31 C          16.0089   40.5979   34.0649 C.3     1  UNL1        0.0099
     32 C          17.4402   40.0307   33.9916 C.3     1  UNL1        0.0271
     33 H          19.1052   37.9515   28.6797 H       1  UNL1        0.1676
@<TRIPOS>BOND
     1     7    12   ar
     2     7     8   ar
     3     8     9   ar
     4     9    10   ar
     5     9    13    1
     6    10    11   ar
     7    11    12   ar
     8    12     3    1
     9     3     4   am
    10     4     5    2
    11     4     2    1
    12     2     1    1
    13     1    18    1
    14    18    19    1
    15    19    20    1
    16    20    29   ar
    17    20    21   ar
    18    21    22   ar
    19    22    23    2
    20    22    24   ar
    21    24    28   ar
    22    24    25   ar
    23    25    32    1
    24    25    26   ar
    25    26    27   ar
    26    26    30    1
    27    27    28   ar
    28    28    29   ar
    29    30    31    1
    30    31    32    1
    31    13    17   ar
    32    13    14   ar
    33    14    15   ar
    34    15    16   ar
    35    16    17   ar
    36     3     6    1
    37    29    33    1
@<TRIPOS>MOLECULE
ZINC27469529
 32 34 0 0 0
SMALL
GASTEIGER

@<TRIPOS>ATOM
      1 C          26.6829   37.3884   27.7352 C.ar    1  UNL1        0.1222
      2 C          25.8231   38.3758   28.1827 C.ar    1  UNL1        0.0199
      3 C          24.6312   38.6058   27.5273 C.ar    1  UNL1        0.0026
      4 C          24.2931   37.8394   26.4106 C.ar    1  UNL1        0.0156
      5 C          25.1624   36.8406   25.9680 C.ar    1  UNL1        0.0026
      6 C          26.3543   36.6255   26.6286 C.ar    1  UNL1        0.0199
      7 S          28.2035   37.1017   28.5779 S.O2    1  UNL1        0.0633
      8 O          29.1590   36.7549   27.5850 O.2     1  UNL1       -0.1528
      9 O          28.3893   38.1967   29.4644 O.2     1  UNL1       -0.1528
     10 N          27.9939   35.7580   29.5228 N.3     1  UNL1       -0.1555
     11 C          27.4302   35.8895   30.8686 C.3     1  UNL1        0.0958
     12 C          25.3835   34.7213   31.6983 C.3     1  UNL1        0.0015
     13 C          25.9032   35.8368   30.7892 C.3     1  UNL1        0.0191
     14 C          28.3724   34.4377   29.0130 C.3     1  UNL1        0.0958
     15 C          27.1555   33.7724   28.3669 C.3     1  UNL1        0.0191
     16 C          27.1346   32.2861   28.7292 C.3     1  UNL1        0.0015
     17 C          23.0180   38.0802   25.7034 C.2     1  UNL1        0.0826
     18 O          22.9662   38.8972   24.8046 O.2     1  UNL1       -0.3129
     19 N          21.9124   37.3942   26.0549 N.am    1  UNL1       -0.5887
     20 C          21.2949   37.6493   27.2713 C.ar    1  UNL1        0.0193
     21 N          20.6411   36.8281   28.0844 N.ar    1  UNL1       -0.1642
     22 N          20.1330   37.2270   29.1677 N.ar    1  UNL1       -0.1228
     23 C          20.2231   38.4960   29.5587 C.ar    1  UNL1        0.2143
     24 S          21.1468   39.1811   28.1865 S.2     1  UNL1       -0.0511
     25 N          19.7449   39.1007   30.6780 N.2     1  UNL1       -0.2181
     26 C          20.4703   39.1336   31.7627 C.2     1  UNL1        0.1011
     27 C          19.9525   39.7883   32.9745 C.ar    1  UNL1        0.0192
     28 C          20.7871   39.9821   34.0799 C.ar    1  UNL1        0.0015
     29 C          20.2942   40.5960   35.2120 C.ar    1  UNL1        0.0000
     30 C          18.9775   41.0201   35.2560 C.ar    1  UNL1        0.0000
     31 C          18.1454   40.8320   34.1662 C.ar    1  UNL1        0.0000
     32 C          18.6232   40.2197   33.0269 C.ar    1  UNL1        0.0015
@<TRIPOS>UNITY_ATOM_ATTR
19 1
charge -1
@<TRIPOS>BOND
     1    12    13    1
     2    13    11    1
     3    11    10    1
     4    10    14    1
     5    10     7    1
     6    14    15    1
     7    15    16    1
     8     7     8    2
     9     7     9    2
    10     7     1    1
    11     1     6   ar
    12     1     2   ar
    13     2     3   ar
    14     3     4   ar
    15     4     5   ar
    16     4    17    1
    17     5     6   ar
    18    17    18    2
    19    17    19    1
    20    19    20    1
    21    20    24   ar
    22    20    21   ar
    23    21    22   ar
    24    22    23   ar
    25    23    24   ar
    26    23    25    1
    27    25    26    2
    28    26    27    1
    29    27    32   ar
    30    27    28   ar
    31    28    29   ar
    32    29    30   ar
    33    30    31   ar
    34    31    32   ar
@<TRIPOS>MOLECULE
ZINC10825206
 32 35 0 0 0
SMALL
GASTEIGER

@<TRIPOS>ATOM
      1 C          14.0971   37.3941   29.0933 C.2     1  UNL1        0.2181
      2 O          14.4080   36.3532   28.5526 O.2     1  UNL1       -0.2873
      3 C          18.4632   39.1566   31.0403 C.3     1  UNL1        0.0500
      4 C          17.0064   38.8711   30.7808 C.ar    1  UNL1        0.0372
      5 C          16.5302   38.0750   29.8088 C.ar    1  UNL1        0.0168
      6 C          15.0667   38.1015   29.9324 C.ar    1  UNL1        0.0512
      7 C          14.7926   38.9315   31.0032 C.ar    1  UNL1        0.0400
      8 N          15.9612   39.3774   31.4976 N.ar    1  UNL1       -0.3335
      9 C          13.4221   39.2768   31.5260 C.3     1  UNL1        0.0501
     10 C          16.0932   40.2841   32.6407 C.3     1  UNL1        0.1106
     11 C          16.5288   39.4900   33.8738 C.3     1  UNL1        0.0574
     12 C          17.8802   39.9748   34.3319 C.ar    1  UNL1        0.0092
     13 C          18.3224   41.2463   34.4901 C.ar    1  UNL1        0.0028
     14 C          19.6147   41.4563   34.9333 C.ar    1  UNL1        0.0072
     15 C          20.4037   40.3846   35.1909 C.ar    1  UNL1        0.0351
     16 S          19.3149   39.0234   34.8050 S.2     1  UNL1       -0.0907
     17 C          12.7132   37.9588   28.9011 C.3     1  UNL1        0.2767
     18 O          11.9992   37.1658   27.9164 O.3     1  UNL1       -0.4385
     19 C          11.8907   37.6811   26.6816 C.2     1  UNL1        0.3428
     20 O          12.8812   38.0260   26.0817 O.2     1  UNL1       -0.2478
     21 C          10.5335   37.8296   26.0438 C.3     1  UNL1        0.2427
     22 N          10.6874   38.3547   24.6848 N.ar    1  UNL1       -0.1699
     23 C          10.6586   39.6556   24.3231 C.ar    1  UNL1        0.3705
     24 O          10.5008   40.6141   25.0583 O.2     1  UNL1       -0.2428
     25 N          10.8429   39.6838   22.9855 N.ar    1  UNL1       -0.1533
     26 N          10.9741   38.3591   22.5511 N.ar    1  UNL1       -0.0372
     27 N          10.8851   37.5993   23.5225 N.ar    1  UNL1       -0.0412
     28 C          10.8884   40.8268   22.1805 C.ar    1  UNL1        0.1185
     29 C          11.5133   41.0093   20.9838 C.ar    1  UNL1        0.0266
     30 C          11.4153   42.2397   20.3618 C.ar    1  UNL1        0.0091
     31 C          10.7120   43.2285   20.9651 C.ar    1  UNL1        0.0370
     32 S          10.1492   42.4279   22.4581 S.2     1  UNL1       -0.0673
@<TRIPOS>BOND
     1     3     4    1
     2     4     8   ar
     3     4     5   ar
     4     5     6   ar
     5     6     7   ar
     6     6     1    1
     7     7     8   ar
     8     7     9    1
     9     8    10    1
    10    10    11    1
    11    11    12    1
    12    12    16   ar
    13    12    13   ar
    14    13    14   ar
    15    14    15   ar
    16    15    16   ar
    17     1     2    2
    18     1    17    1
    19    17    18    1
    20    18    19    1
    21    19    20    2
    22    19    21    1
    23    21    22    1
    24    22    27   ar
    25    22    23   ar
    26    23    24    2
    27    23    25   ar
    28    25    26   ar
    29    25    28    1
    30    26    27   ar
    31    28    32   ar
    32    28    29   ar
    33    29    30   ar
    34    30    31   ar
    35    31    32   ar
@<TRIPOS>MOLECULE
ZINC30852865
 32 35 0 0 0
SMALL
GASTEIGER

@<TRIPOS>ATOM
      1 C          12.5931   37.2754   27.2590 C.2     1  UNL1        0.3218
      2 O          13.2194   36.2578   27.0804 O.2     1  UNL1       -0.2497
      3 O          12.3085   38.0790   26.2221 O.3     1  UNL1       -0.4440
      4 C          10.3425   36.6569   26.0153 C.3     1  UNL1        0.0560
      5 C          10.9569   38.0210   25.6947 C.3     1  UNL1        0.2296
      6 C          10.9916   38.2179   24.2011 C.2     1  UNL1        0.2128
      7 O          11.1692   37.2682   23.4684 O.2     1  UNL1       -0.2875
      8 C          10.8098   39.5627   23.6317 C.ar    1  UNL1        0.0380
      9 C          10.1941   40.5683   24.3839 C.ar    1  UNL1        0.0026
     10 C          10.0343   41.8253   23.8440 C.ar    1  UNL1       -0.0045
     11 C          10.4690   42.0969   22.5549 C.ar    1  UNL1       -0.0261
     12 C          11.0740   41.1051   21.8022 C.ar    1  UNL1       -0.0260
     13 C          11.2460   39.8416   22.3340 C.ar    1  UNL1       -0.0016
     14 C          11.4524   41.6541   20.4429 C.3     1  UNL1        0.0264
     15 C          10.6267   42.9484   20.2856 C.3     1  UNL1        0.0093
     16 C          10.4013   43.3782   21.7506 C.3     1  UNL1        0.0264
     17 C          12.1313   37.6425   28.6457 C.3     1  UNL1        0.1359
     18 C          13.3145   38.0806   29.4697 C.ar    1  UNL1       -0.0112
     19 C          14.5802   38.0837   28.9123 C.ar    1  UNL1       -0.0056
     20 C          15.6667   38.4842   29.6648 C.ar    1  UNL1       -0.0241
     21 C          15.4872   38.8842   30.9830 C.ar    1  UNL1       -0.1123
     22 C          14.2153   38.8748   31.5413 C.ar    1  UNL1       -0.0241
     23 C          13.1324   38.4781   30.7815 C.ar    1  UNL1       -0.0056
     24 N          16.5841   39.2893   31.7471 N.pl3   1  UNL1       -0.5354
     25 S          16.3463   40.0605   33.1931 S.O2    1  UNL1       -0.0520
     26 O          15.8762   41.3656   32.8849 O.2     1  UNL1       -0.1837
     27 O          15.6156   39.1624   34.0170 O.2     1  UNL1       -0.1837
     28 C          17.9280   40.2591   33.9437 C.ar    1  UNL1        0.1187
     29 C          18.4324   41.3321   34.6005 C.ar    1  UNL1        0.0241
     30 C          19.7139   41.2622   35.1141 C.ar    1  UNL1        0.0088
     31 C          20.4281   40.1225   34.9457 C.ar    1  UNL1        0.0367
     32 S          19.2791   39.0964   34.0434 S.2     1  UNL1       -0.0697
@<TRIPOS>UNITY_ATOM_ATTR
24 1
charge -1
@<TRIPOS>BOND
     1     4     5    1
     2     5     6    1
     3     5     3    1
     4     6     7    2
     5     6     8    1
     6     8    13   ar
     7     8     9   ar
     8     9    10   ar
     9    10    11   ar
    10    11    16    1
    11    11    12   ar
    12    12    13   ar
    13    12    14    1
    14    14    15    1
    15    15    16    1
    16     3     1    1
    17     1     2    2
    18     1    17    1
    19    17    18    1
    20    18    23   ar
    21    18    19   ar
    22    19    20   ar
    23    20    21   ar
    24    21    22   ar
    25    21    24    1
    26    22    23   ar
    27    24    25    1
    28    25    26    2
    29    25    27    2
    30    25    28    1
    31    28    32   ar
    32    28    29   ar
    33    29    30   ar
    34    30    31   ar
    35    31    32   ar
@<TRIPOS>MOLECULE
ZINC24737817
 30 32 0 0 0
SMALL
GASTEIGER

@<TRIPOS>ATOM
      1 N          18.8189   39.3157   31.7360 N.am    1  UNL1       -0.2386
      2 C          19.4650   38.8179   30.6631 C.2     1  UNL1        0.2327
      3 O          18.8344   38.3540   29.7368 O.2     1  UNL1       -0.2744
      4 C          17.4303   39.2974   31.7809 C.ar    1  UNL1        0.1688
      5 N          16.5726   38.8074   30.9054 N.ar    1  UNL1       -0.2237
      6 C          15.2657   38.8800   31.1081 C.ar    1  UNL1        0.0906
      7 C          14.7956   39.4644   32.2510 C.ar    1  UNL1        0.0573
      8 S          16.3312   39.9253   33.0429 S.2     1  UNL1       -0.0506
      9 C          14.3211   38.3268   30.1072 C.ar    1  UNL1        0.0288
     10 C          14.7972   37.8365   28.8924 C.ar    1  UNL1        0.0032
     11 C          13.9150   37.3176   27.9670 C.ar    1  UNL1        0.0115
     12 C          12.5572   37.2940   28.2380 C.ar    1  UNL1        0.0585
     13 C          12.0779   37.7842   29.4402 C.ar    1  UNL1        0.0228
     14 C          12.9528   38.3006   30.3760 C.ar    1  UNL1        0.0600
     15 CL         12.3505   38.9163   31.8833 Cl      1  UNL1       -0.0822
     16 CL         11.4525   36.6467   27.0656 Cl      1  UNL1       -0.0822
     17 C          19.5807   39.8762   32.8548 C.3     1  UNL1        0.1001
     18 C          19.5612   38.8940   34.0279 C.3     1  UNL1        0.0219
     19 C          19.9033   41.0775   35.1931 C.3     1  UNL1        0.0001
     20 C          20.1498   39.5693   35.2682 C.3     1  UNL1        0.0018
     21 C          20.9712   38.8377   30.6143 C.3     1  UNL1        0.1101
     22 C          21.4407   38.4700   29.2053 C.3     1  UNL1        0.1173
     23 N          22.1541   39.6059   28.6163 N.ar    1  UNL1       -0.3059
     24 C          21.9680   40.9276   28.9198 C.ar    1  UNL1        0.1215
     25 C          22.8266   41.6278   28.1542 C.ar    1  UNL1        0.2429
     26 N          23.5116   40.7580   27.3971 N.ar    1  UNL1       -0.2007
     27 C          23.1141   39.5450   27.6685 C.ar    1  UNL1        0.1803
     28 N          22.9824   43.0998   28.1451 N.pl3   1  UNL1        0.0774
     29 O          23.7277   43.6283   27.3396 O.2     1  UNL1       -0.1245
     30 O          22.3655   43.7825   28.9430 O.2     1  UNL1       -0.1245
@<TRIPOS>BOND
     1    19    20    1
     2    20    18    1
     3    18    17    1
     4    17     1    1
     5     1     4    1
     6     1     2   am
     7     4     8   ar
     8     4     5   ar
     9     5     6   ar
    10     6     7   ar
    11     6     9    1
    12     7     8   ar
    13     9    14   ar
    14     9    10   ar
    15    10    11   ar
    16    11    12   ar
    17    12    13   ar
    18    12    16    1
    19    13    14   ar
    20    14    15    1
    21     2     3    2
    22     2    21    1
    23    21    22    1
    24    22    23    1
    25    23    27   ar
    26    23    24   ar
    27    24    25   ar
    28    25    26   ar
    29    25    28    1
    30    26    27   ar
    31    28    29    2
    32    28    30    2
@<TRIPOS>MOLECULE
ZINC10532374
 34 36 0 0 0
SMALL
GASTEIGER

@<TRIPOS>ATOM
      1 C          20.7653   37.6870   28.7798 C.2     1  UNL1        0.3417
      2 O          20.6759   37.0008   27.7791 O.2     1  UNL1       -0.2449
      3 C          23.1047   38.1689   28.5778 C.2     1  UNL1        0.0091
      4 C          21.8640   38.5653   28.9401 C.2     1  UNL1        0.0820
      5 C          25.6221   37.6684   30.4431 C.3     1  UNL1        0.0540
      6 C          25.3739   38.8719   29.5709 C.ar    1  UNL1        0.0804
      7 C          24.2446   39.0803   28.7440 C.ar    1  UNL1        0.0291
      8 C          24.4188   40.3011   28.1170 C.ar    1  UNL1        0.0620
      9 N          25.5883   40.8101   28.5484 N.ar    1  UNL1       -0.2340
     10 N          26.1626   39.9036   29.4463 N.ar    1  UNL1       -0.1698
     11 C          23.4732   40.9436   27.1351 C.3     1  UNL1        0.0522
     12 C          26.1400   42.0381   28.1593 C.ar    1  UNL1        0.0824
     13 C          25.7463   43.2095   28.7925 C.ar    1  UNL1        0.0191
     14 C          26.2962   44.4176   28.4106 C.ar    1  UNL1        0.0015
     15 C          27.2291   44.4627   27.3909 C.ar    1  UNL1        0.0001
     16 C          27.6193   43.2985   26.7548 C.ar    1  UNL1        0.0015
     17 C          27.0772   42.0866   27.1360 C.ar    1  UNL1        0.0191
     18 O          19.8172   37.6108   29.7371 O.3     1  UNL1       -0.4404
     19 C          20.0430   38.3571   30.9347 C.3     1  UNL1        0.2371
     20 C          18.7206   38.7875   31.5152 C.ar    1  UNL1        0.0469
     21 C          17.5770   38.7357   30.7395 C.ar    1  UNL1        0.0410
     22 C          16.3599   39.1265   31.2730 C.ar    1  UNL1        0.1725
     23 C          16.2931   39.5807   32.5871 C.ar    1  UNL1        0.1796
     24 C          17.4434   39.6350   33.3571 C.ar    1  UNL1        0.0641
     25 C          18.6543   39.2385   32.8200 C.ar    1  UNL1        0.1456
     26 N          19.8822   39.2968   33.6443 N.pl3   1  UNL1        0.0576
     27 O          20.5761   40.2978   33.6334 O.2     1  UNL1       -0.1261
     28 O          20.1988   38.3438   34.3335 O.2     1  UNL1       -0.1261
     29 O          15.2333   39.0709   30.5133 O.3     1  UNL1       -0.4684
     30 C          15.2632   38.2133   29.3707 C.3     1  UNL1        0.2526
     31 O          15.1014   39.9699   33.1140 O.3     1  UNL1       -0.4205
     32 C          14.9655   41.3491   33.4625 C.3     1  UNL1        0.5087
     33 F          15.2389   41.5151   34.8244 F       1  UNL1       -0.1550
     34 F          15.8656   42.1111   32.7098 F       1  UNL1       -0.1550
@<TRIPOS>BOND
     1     5     6    1
     2     6    10   ar
     3     6     7   ar
     4     7     8   ar
     5     7     3    1
     6     8     9   ar
     7     8    11    1
     8     9    10   ar
     9     9    12    1
    10    12    17   ar
    11    12    13   ar
    12    13    14   ar
    13    14    15   ar
    14    15    16   ar
    15    16    17   ar
    16     3     4    2
    17     4     1    1
    18     1     2    2
    19     1    18    1
    20    18    19    1
    21    19    20    1
    22    20    25   ar
    23    20    21   ar
    24    21    22   ar
    25    22    23   ar
    26    22    29    1
    27    23    24   ar
    28    23    31    1
    29    24    25   ar
    30    25    26    1
    31    26    27    2
    32    26    28    2
    33    31    32    1
    34    32    33    1
    35    32    34    1
    36    29    30    1
@<TRIPOS>MOLECULE
ZINC19924449
 33 35 0 0 0
SMALL
GASTEIGER

@<TRIPOS>ATOM
      1 C          12.4152   37.7097   27.1273 C.ar    1  UNL1        0.1842
      2 N          13.6010   37.7715   26.5908 N.ar    1  UNL1       -0.1291
      3 N          14.5010   37.7724   27.5084 N.ar    1  UNL1       -0.1223
      4 C          13.9331   37.7022   28.6899 C.ar    1  UNL1        0.1937
      5 N          12.5839   37.6633   28.4837 N.ar    1  UNL1       -0.2868
      6 C          11.1011   37.6924   26.3897 C.3     1  UNL1        0.2236
      7 C          10.6471   36.2450   26.1905 C.3     1  UNL1        0.0557
      8 O          11.2613   38.3209   25.1164 O.3     1  UNL1       -0.4719
      9 C          10.6646   40.1558   23.7249 C.ar    1  UNL1        0.0115
     10 C          10.1539   41.4326   23.5907 C.ar    1  UNL1       -0.0013
     11 C           9.7515   42.1385   24.7091 C.ar    1  UNL1       -0.0001
     12 C           9.8545   41.5672   25.9642 C.ar    1  UNL1        0.0031
     13 C          10.3598   40.2893   26.1033 C.ar    1  UNL1        0.0366
     14 C          10.7639   39.5785   24.9822 C.ar    1  UNL1        0.1350
     15 C          10.1420   38.2302   22.2524 C.3     1  UNL1        0.0048
     16 C          11.1083   39.3891   22.5058 C.3     1  UNL1        0.0253
     17 C          11.1165   40.3209   21.2923 C.3     1  UNL1        0.0048
     18 C          11.5350   37.5875   29.5035 C.3     1  UNL1        0.1357
     19 C          11.4047   38.9227   30.1902 C.2     1  UNL1       -0.0017
     20 C          11.6834   39.0333   31.4654 C.2     1  UNL1       -0.0029
     21 S          14.7561   37.6717   30.2477 S.3     1  UNL1       -0.0673
     22 C          16.0303   38.9233   29.9545 C.3     1  UNL1        0.1340
     23 C          17.1493   38.7431   30.9477 C.2     1  UNL1        0.1844
     24 O          18.0053   37.9070   30.7517 O.2     1  UNL1       -0.2904
     25 C          17.2031   39.5820   32.1557 C.ar    1  UNL1        0.0372
     26 C          16.1435   40.4421   32.4621 C.ar    1  UNL1        0.0030
     27 C          16.1988   41.2205   33.5986 C.ar    1  UNL1        0.0018
     28 C          17.3019   41.1567   34.4325 C.ar    1  UNL1        0.0241
     29 C          18.3567   40.3123   34.1334 C.ar    1  UNL1        0.1430
     30 C          18.3161   39.5270   33.0005 C.ar    1  UNL1        0.0269
     31 N          19.5311   40.2515   35.0320 N.pl3   1  UNL1        0.0577
     32 O          19.9388   41.2648   35.5708 O.2     1  UNL1       -0.1261
     33 O          20.0900   39.1880   35.2327 O.2     1  UNL1       -0.1261
@<TRIPOS>BOND
     1    15    16    1
     2    16    17    1
     3    16     9    1
     4     9    14   ar
     5     9    10   ar
     6    10    11   ar
     7    11    12   ar
     8    12    13   ar
     9    13    14   ar
    10    14     8    1
    11     8     6    1
    12     6     7    1
    13     6     1    1
    14     1     5   ar
    15     1     2   ar
    16     2     3   ar
    17     3     4   ar
    18     4     5   ar
    19     4    21    1
    20     5    18    1
    21    18    19    1
    22    19    20    2
    23    21    22    1
    24    22    23    1
    25    23    24    2
    26    23    25    1
    27    25    30   ar
    28    25    26   ar
    29    26    27   ar
    30    27    28   ar
    31    28    29   ar
    32    29    30   ar
    33    29    31    1
    34    31    32    2
    35    31    33    2
@<TRIPOS>MOLECULE
ZINC17991313
 31 32 0 0 0
SMALL
GASTEIGER

@<TRIPOS>ATOM
      1 C          11.1915   38.7736   25.9322 C.2     1  UNL1        0.3424
      2 O          10.3651   39.1969   26.7156 O.2     1  UNL1       -0.2449
      3 C          10.9705   38.9130   24.4790 C.ar    1  UNL1        0.0875
      4 C          11.3338   40.0920   23.8239 C.ar    1  UNL1        0.0273
      5 C          11.1242   40.2157   22.4668 C.ar    1  UNL1        0.1246
      6 C          10.5600   39.1733   21.7517 C.ar    1  UNL1        0.0209
      7 C          10.1926   38.0049   22.3932 C.ar    1  UNL1        0.0130
      8 C          10.3965   37.8663   23.7525 C.ar    1  UNL1        0.0640
      9 CL          9.9404   36.3965   24.5559 Cl      1  UNL1       -0.0820
     10 S          11.5825   41.7021   21.6390 S.O2    1  UNL1        0.0844
     11 O          12.6892   42.2387   22.3507 O.2     1  UNL1       -0.1509
     12 O          11.6453   41.3925   20.2535 O.2     1  UNL1       -0.1509
     13 N          10.3338   42.7731   21.8284 N.4     1  UNL1       -0.0413
     14 C          10.3115   44.0166   21.0541 C.3     1  UNL1        0.1483
     15 O           9.2875   42.4872   22.7388 O.3     1  UNL1       -0.2595
     16 C           8.3895   43.5779   22.9534 C.3     1  UNL1        0.2027
     17 O          12.3095   38.1771   26.3894 O.3     1  UNL1       -0.4412
     18 C          11.3595   36.2191   27.4823 C.3     1  UNL1        0.0560
     19 C          12.2118   37.4775   27.6580 C.3     1  UNL1        0.2300
     20 C          13.5910   37.0890   28.1249 C.2     1  UNL1        0.2128
     21 O          14.1921   36.1975   27.5642 O.2     1  UNL1       -0.2875
     22 C          14.2081   37.7914   29.2614 C.ar    1  UNL1        0.0383
     23 C          15.5792   38.0670   29.2567 C.ar    1  UNL1        0.0026
     24 C          16.1490   38.7306   30.3227 C.ar    1  UNL1       -0.0042
     25 C          15.3698   39.1130   31.4008 C.ar    1  UNL1       -0.0228
     26 C          14.0134   38.8387   31.4156 C.ar    1  UNL1       -0.0042
     27 C          13.4276   38.1815   30.3543 C.ar    1  UNL1        0.0026
     28 C          16.0018   39.8321   32.5646 C.3     1  UNL1        0.0189
     29 C          15.6064   41.3096   32.5267 C.3     1  UNL1        0.0044
     30 C          15.5165   39.2078   33.8744 C.3     1  UNL1        0.0044
     31 C          17.5242   39.7090   32.4743 C.3     1  UNL1        0.0044
@<TRIPOS>BOND
     1    18    19    1
     2    19    20    1
     3    19    17    1
     4    20    21    2
     5    20    22    1
     6    22    27   ar
     7    22    23   ar
     8    23    24   ar
     9    24    25   ar
    10    25    26   ar
    11    25    28    1
    12    26    27   ar
    13    28    29    1
    14    28    30    1
    15    28    31    1
    16    17     1    1
    17     1     2    2
    18     1     3    1
    19     3     8   ar
    20     3     4   ar
    21     4     5   ar
    22     5     6   ar
    23     5    10    1
    24     6     7   ar
    25     7     8   ar
    26     8     9    1
    27    10    11    2
    28    10    12    2
    29    10    13    1
    30    13    14    1
    31    13    15    1
    32    15    16    1
@<TRIPOS>MOLECULE
ZINC20064701
 32 34 0 0 0
SMALL
GASTEIGER

@<TRIPOS>ATOM
      1 C          23.2762   38.8026   28.7238 C.ar    1  UNL1        0.0358
      2 C          24.6383   38.7699   29.0002 C.ar    1  UNL1        0.0084
      3 C          25.1313   37.8921   29.9425 C.ar    1  UNL1        0.0246
      4 C          24.2766   37.0366   30.6210 C.ar    1  UNL1        0.1431
      5 C          22.9241   37.0534   30.3617 C.ar    1  UNL1        0.0310
      6 C          22.4083   37.9330   29.4053 C.ar    1  UNL1        0.0833
      7 N          24.8209   36.0997   31.6295 N.pl3   1  UNL1        0.0577
      8 O          24.9352   36.4526   32.7896 O.2     1  UNL1       -0.1261
      9 O          25.1544   34.9758   31.2993 O.2     1  UNL1       -0.1261
     10 C          20.9641   37.9523   29.1185 C.2     1  UNL1        0.3422
     11 O          20.4757   37.1017   28.4009 O.2     1  UNL1       -0.2449
     12 O          20.1839   38.9131   29.6520 O.3     1  UNL1       -0.4372
     13 C          19.5398   38.6118   30.9180 C.3     1  UNL1        0.2739
     14 C          18.0439   38.6863   30.7508 C.2     1  UNL1        0.2145
     15 O          17.5572   38.6483   29.6463 O.2     1  UNL1       -0.2906
     16 C          17.1555   38.8081   31.9620 C.3     1  UNL1        0.1980
     17 C          17.8147   39.7017   32.9807 C.ar    1  UNL1        0.1090
     18 N          18.9367   39.5166   33.6373 N.ar    1  UNL1       -0.2455
     19 C          19.3802   40.4036   34.5032 C.ar    1  UNL1        0.0661
     20 C          18.6474   41.5278   34.7079 C.ar    1  UNL1        0.0513
     21 S          17.2892   41.2439   33.5818 S.2     1  UNL1       -0.0692
     22 C          20.6696   40.1762   35.2493 C.3     1  UNL1        0.0527
     23 C          15.8618   39.3875   31.5651 C.1     1  UNL1        0.0864
     24 N          14.8633   39.8346   31.2589 N.1     1  UNL1       -0.1950
     25 S          22.6429   39.9225   27.5199 S.3     1  UNL1       -0.0867
     26 C          24.8781   45.2757   29.1878 C.3     1  UNL1        0.0310
     27 C          24.3201   43.9393   28.7712 C.ar    1  UNL1       -0.0218
     28 C          22.9965   43.6332   29.0306 C.ar    1  UNL1       -0.0037
     29 C          22.4818   42.4095   28.6506 C.ar    1  UNL1        0.0062
     30 C          23.2953   41.4852   28.0066 C.ar    1  UNL1        0.0294
     31 C          24.6261   41.7941   27.7523 C.ar    1  UNL1        0.0062
     32 C          25.1324   43.0219   28.1299 C.ar    1  UNL1       -0.0037
@<TRIPOS>BOND
     1    26    27    1
     2    27    32   ar
     3    27    28   ar
     4    28    29   ar
     5    29    30   ar
     6    30    31   ar
     7    30    25    1
     8    31    32   ar
     9    25     1    1
    10     1     6   ar
    11     1     2   ar
    12     2     3   ar
    13     3     4   ar
    14     4     5   ar
    15     4     7    1
    16     5     6   ar
    17     6    10    1
    18    10    11    2
    19    10    12    1
    20    12    13    1
    21    13    14    1
    22    14    15    2
    23    14    16    1
    24    16    23    1
    25    16    17    1
    26    23    24    3
    27    17    21   ar
    28    17    18   ar
    29    18    19   ar
    30    19    20   ar
    31    19    22    1
    32    20    21   ar
    33     7     8    2
    34     7     9    2
@<TRIPOS>MOLECULE
ZINC22550393
 33 35 0 0 0
SMALL
GASTEIGER

@<TRIPOS>ATOM
      1 C          24.6151   39.2621   27.2849 C.2     1  UNL1        0.2699
      2 O          25.5109   38.6502   26.7426 O.2     1  UNL1       -0.2706
      3 N          24.3290   40.5213   26.8988 N.am    1  UNL1       -0.2509
      4 C          25.0186   41.0983   25.8244 C.ar    1  UNL1        0.0545
      5 C          26.3004   41.5985   26.0101 C.ar    1  UNL1        0.0180
      6 C          26.9798   42.1667   24.9507 C.ar    1  UNL1        0.0382
      7 C          26.3817   42.2379   23.7010 C.ar    1  UNL1        0.1388
      8 C          25.1011   41.7385   23.5147 C.ar    1  UNL1        0.0382
      9 C          24.4206   41.1699   24.5734 C.ar    1  UNL1        0.0180
     10 O          27.0510   42.7980   22.6583 O.3     1  UNL1       -0.4714
     11 C          26.8630   44.1982   22.4437 C.3     1  UNL1        0.2525
     12 C          24.7790   37.9758   29.3986 C.3     1  UNL1        0.0575
     13 C          23.8217   38.6144   28.3904 C.3     1  UNL1        0.2449
     14 O          22.9700   37.6080   27.8389 O.3     1  UNL1       -0.4397
     15 C          21.6398   37.8135   27.9312 C.2     1  UNL1        0.3418
     16 O          20.8978   37.3910   27.0651 O.2     1  UNL1       -0.2449
     17 C          21.0903   38.5441   29.0724 C.2     1  UNL1        0.0819
     18 C          20.1329   37.9795   29.8372 C.2     1  UNL1        0.0067
     19 C          19.5798   38.7149   30.9858 C.ar    1  UNL1        0.0003
     20 C          20.4313   39.4042   31.8552 C.ar    1  UNL1        0.0017
     21 C          19.9048   40.0959   32.9255 C.ar    1  UNL1        0.0241
     22 C          18.5387   40.0994   33.1475 C.ar    1  UNL1        0.1429
     23 C          17.6900   39.4146   32.2952 C.ar    1  UNL1        0.0241
     24 C          18.2005   38.7233   31.2170 C.ar    1  UNL1        0.0017
     25 N          17.9824   40.8391   34.3027 N.pl3   1  UNL1        0.0577
     26 O          16.7768   40.9625   34.4234 O.2     1  UNL1       -0.1261
     27 O          18.7304   41.3243   35.1326 O.2     1  UNL1       -0.1261
     28 C          23.2970   41.2867   27.6028 C.3     1  UNL1        0.1312
     29 C          23.9063   42.5377   28.1812 C.ar    1  UNL1        0.0276
     30 C          23.4662   43.8173   28.1012 C.ar    1  UNL1        0.0044
     31 C          24.1955   44.8167   28.7175 C.ar    1  UNL1        0.0072
     32 C          25.3292   44.4878   29.3837 C.ar    1  UNL1        0.0352
     33 S          25.3907   42.7182   29.1565 S.2     1  UNL1       -0.0891
@<TRIPOS>BOND
     1    12    13    1
     2    13     1    1
     3    13    14    1
     4     1     2    2
     5     1     3   am
     6     3    28    1
     7     3     4    1
     8    28    29    1
     9    29    33   ar
    10    29    30   ar
    11    30    31   ar
    12    31    32   ar
    13    32    33   ar
    14     4     9   ar
    15     4     5   ar
    16     5     6   ar
    17     6     7   ar
    18     7     8   ar
    19     7    10    1
    20     8     9   ar
    21    10    11    1
    22    14    15    1
    23    15    16    2
    24    15    17    1
    25    17    18    2
    26    18    19    1
    27    19    24   ar
    28    19    20   ar
    29    20    21   ar
    30    21    22   ar
    31    22    23   ar
    32    22    25    1
    33    23    24   ar
    34    25    26    2
    35    25    27    2
@<TRIPOS>MOLECULE
ZINC20678165
 31 32 0 0 0
SMALL
GASTEIGER

@<TRIPOS>ATOM
      1 N          21.6762   51.9964   22.8014 N.3     1  UNL1       -0.1417
      2 S          21.0502   53.0727   23.8933 S.O2    1  UNL1        0.0640
      3 O          19.8345   53.5545   23.3373 O.2     1  UNL1       -0.1528
      4 O          22.1136   53.9385   24.2655 O.2     1  UNL1       -0.1528
      5 C          20.6167   52.1585   25.3359 C.ar    1  UNL1        0.1223
      6 C          21.2923   52.3776   26.5219 C.ar    1  UNL1        0.0216
      7 C          20.9493   51.6635   27.6547 C.ar    1  UNL1        0.0254
      8 C          19.9373   50.7235   27.5992 C.ar    1  UNL1        0.1430
      9 C          19.2649   50.5010   26.4121 C.ar    1  UNL1        0.0254
     10 C          19.6050   51.2181   25.2802 C.ar    1  UNL1        0.0216
     11 N          19.5732   49.9556   28.8112 N.pl3   1  UNL1        0.0577
     12 O          18.7000   50.3675   29.5537 O.2     1  UNL1       -0.1261
     13 O          20.1467   48.9118   29.0659 O.2     1  UNL1       -0.1261
     14 C          20.7893   51.3082   21.8603 C.3     1  UNL1        0.1781
     15 C          21.1426   51.7224   20.4304 C.3     1  UNL1        0.0272
     16 C          21.1849   53.2490   20.3375 C.3     1  UNL1        0.0020
     17 C          20.7627   50.6995   18.1828 C.3     1  UNL1        0.0001
     18 C          20.0844   51.1819   19.4666 C.3     1  UNL1        0.0020
     19 C          20.9591   49.8181   22.0080 C.2     1  UNL1        0.3333
     20 O          20.1550   49.1785   22.6439 O.2     1  UNL1       -0.2485
     21 O          22.0038   49.2014   21.4333 O.3     1  UNL1       -0.4475
     22 C          21.7166   48.0204   20.6388 C.3     1  UNL1        0.2086
     23 C          22.8008   47.8464   19.5735 C.3     1  UNL1        0.0513
     24 C          23.1171   51.7326   22.7766 C.3     1  UNL1        0.1227
     25 C          23.5450   51.1555   24.1014 C.ar    1  UNL1       -0.0036
     26 C          23.0298   49.9450   24.5266 C.ar    1  UNL1       -0.0028
     27 C          23.4224   49.4147   25.7411 C.ar    1  UNL1        0.0006
     28 C          24.3302   50.0944   26.5315 C.ar    1  UNL1        0.0114
     29 C          24.8456   51.3058   26.1066 C.ar    1  UNL1        0.0574
     30 C          24.4565   51.8335   24.8881 C.ar    1  UNL1        0.0085
     31 CL         25.9861   52.1599   27.0984 Cl      1  UNL1       -0.0823
@<TRIPOS>BOND
     1    17    18    1
     2    18    15    1
     3    15    16    1
     4    15    14    1
     5    14    19    1
     6    14     1    1
     7    19    20    2
     8    19    21    1
     9    21    22    1
    10    22    23    1
    11     1    24    1
    12     1     2    1
    13    24    25    1
    14    25    30   ar
    15    25    26   ar
    16    26    27   ar
    17    27    28   ar
    18    28    29   ar
    19    29    30   ar
    20    29    31    1
    21     2     3    2
    22     2     4    2
    23     2     5    1
    24     5    10   ar
    25     5     6   ar
    26     6     7   ar
    27     7     8   ar
    28     8     9   ar
    29     8    11    1
    30     9    10   ar
    31    11    12    2
    32    11    13    2
@<TRIPOS>MOLECULE
ZINC27259115
 35 37 0 0 0
SMALL
GASTEIGER

@<TRIPOS>ATOM
      1 C          23.5139   38.7085   28.2795 C.ar    1  UNL1        0.0275
      2 C          23.3747   40.0212   27.9929 C.ar    1  UNL1        0.0982
      3 N          24.3691   40.6942   28.6287 N.ar    1  UNL1       -0.2285
      4 N          25.1496   39.7604   29.3223 N.ar    1  UNL1       -0.1654
      5 C          24.6390   38.5647   29.1152 C.ar    1  UNL1        0.0993
      6 C          25.1583   37.2882   29.6653 C.ar    1  UNL1        0.0192
      7 C          24.6799   36.8047   30.8814 C.ar    1  UNL1        0.0032
      8 C          25.1620   35.6136   31.3852 C.ar    1  UNL1        0.0241
      9 C          26.1270   34.9062   30.6912 C.ar    1  UNL1        0.1429
     10 C          26.6098   35.3846   29.4865 C.ar    1  UNL1        0.0241
     11 C          26.1303   36.5714   28.9702 C.ar    1  UNL1        0.0032
     12 N          26.6451   33.6328   31.2398 N.pl3   1  UNL1        0.0577
     13 O          26.9612   33.5592   32.4138 O.2     1  UNL1       -0.1261
     14 O          26.7555   32.6586   30.5171 O.2     1  UNL1       -0.1261
     15 C          24.5801   42.0789   28.5927 C.ar    1  UNL1        0.0828
     16 C          25.8701   42.5881   28.6602 C.ar    1  UNL1        0.0191
     17 C          26.0751   43.9534   28.6192 C.ar    1  UNL1        0.0015
     18 C          24.9965   44.8133   28.5224 C.ar    1  UNL1        0.0001
     19 C          23.7102   44.3094   28.4602 C.ar    1  UNL1        0.0015
     20 C          23.4991   42.9450   28.4950 C.ar    1  UNL1        0.0191
     21 C          22.6266   37.5944   27.7871 C.3     1  UNL1        0.1390
     22 C          21.4841   37.3992   28.7502 C.2     1  UNL1        0.3219
     23 O          20.5205   36.7489   28.4207 O.2     1  UNL1       -0.2497
     24 O          21.5370   37.9476   29.9742 O.3     1  UNL1       -0.4426
     25 C          20.6540   39.0712   30.2318 C.3     1  UNL1        0.2443
     26 C          20.0475   39.5557   28.9133 C.3     1  UNL1        0.0575
     27 N          19.4370   39.2075   32.3809 N.am    1  UNL1       -0.2729
     28 C          19.5510   38.6401   31.1637 C.2     1  UNL1        0.2662
     29 O          18.7690   37.7790   30.8203 O.2     1  UNL1       -0.2710
     30 C          20.7801   39.9587   34.2817 C.3     1  UNL1        0.0233
     31 C          20.4142   40.2080   32.8171 C.3     1  UNL1        0.0939
     32 C          18.3358   38.8237   33.2677 C.3     1  UNL1        0.1160
     33 C          17.2154   39.8233   33.1389 C.2     1  UNL1       -0.0242
     34 C          16.2396   39.6080   32.2918 C.2     1  UNL1       -0.0074
     35 C          17.2176   41.0706   33.9846 C.3     1  UNL1        0.0281
@<TRIPOS>BOND
     1    30    31    1
     2    31    27    1
     3    27    32    1
     4    27    28   am
     5    32    33    1
     6    33    34    2
     7    33    35    1
     8    28    29    2
     9    28    25    1
    10    25    26    1
    11    25    24    1
    12    24    22    1
    13    22    23    2
    14    22    21    1
    15    21     1    1
    16     1     5   ar
    17     1     2   ar
    18     2     3   ar
    19     3     4   ar
    20     3    15    1
    21     4     5   ar
    22     5     6    1
    23     6    11   ar
    24     6     7   ar
    25     7     8   ar
    26     8     9   ar
    27     9    10   ar
    28     9    12    1
    29    10    11   ar
    30    12    13    2
    31    12    14    2
    32    15    20   ar
    33    15    16   ar
    34    16    17   ar
    35    17    18   ar
    36    18    19   ar
    37    19    20   ar
@<TRIPOS>MOLECULE
ZINC02870661
 33 35 0 0 0
SMALL
GASTEIGER

@<TRIPOS>ATOM
      1 N          24.5935   39.0298   29.2028 N.am    1  UNL1       -0.6030
      2 C          24.8090   40.8014   27.4472 C.ar    1  UNL1        0.0555
      3 C          24.7705   41.0194   26.0789 C.ar    1  UNL1       -0.0047
      4 C          24.5332   39.9406   25.2696 C.ar    1  UNL1        0.0996
      5 S          24.3692   38.6029   26.4366 S.2     1  UNL1       -0.1056
      6 C          24.6027   39.4945   27.9045 C.ar    1  UNL1       -0.0851
      7 C          24.9818   42.3954   25.5020 C.3     1  UNL1        0.0319
      8 C          25.0571   41.9028   28.3842 C.2     1  UNL1        0.3396
      9 O          26.1752   42.0852   28.8257 O.2     1  UNL1       -0.2450
     10 O          24.0451   42.7128   28.7556 O.3     1  UNL1       -0.4455
     11 C          24.3762   45.0660   28.2240 C.3     1  UNL1        0.0513
     12 C          24.4052   44.0006   29.3216 C.3     1  UNL1        0.2089
     13 C          24.4428   39.8958   23.8108 C.2     1  UNL1        0.3469
     14 O          25.4557   39.9233   23.1376 O.2     1  UNL1       -0.2443
     15 O          23.2361   39.8240   23.2115 O.3     1  UNL1       -0.4451
     16 C          23.2039   40.0042   21.7943 C.3     1  UNL1        0.2089
     17 C          22.5009   41.3223   21.4636 C.3     1  UNL1        0.0513
     18 C          23.8098   37.9862   29.5395 C.2     1  UNL1        0.1167
     19 O          24.2961   36.8786   29.6741 O.2     1  UNL1       -0.3098
     20 C          22.3735   38.1850   29.7434 C.ar    1  UNL1        0.1608
     21 C          21.3806   37.9133   28.8268 C.ar    1  UNL1        0.0419
     22 C          20.1668   38.2448   29.4368 C.ar    1  UNL1        0.0407
     23 C          20.4595   38.7104   30.6867 C.ar    1  UNL1        0.1454
     24 O          21.7908   38.6667   30.8617 O.2     1  UNL1       -0.4522
     25 C          19.4752   39.1786   31.6833 C.ar    1  UNL1        0.0362
     26 C          18.1322   38.8129   31.5683 C.ar    1  UNL1        0.0031
     27 C          17.2193   39.2494   32.5054 C.ar    1  UNL1        0.0018
     28 C          17.6293   40.0574   33.5515 C.ar    1  UNL1        0.0241
     29 C          18.9581   40.4235   33.6715 C.ar    1  UNL1        0.1430
     30 C          19.8830   39.9894   32.7445 C.ar    1  UNL1        0.0271
     31 N          19.3884   41.2835   34.7969 N.pl3   1  UNL1        0.0577
     32 O          18.7893   42.3162   35.0377 O.2     1  UNL1       -0.1261
     33 O          20.3414   40.9582   35.4821 O.2     1  UNL1       -0.1261
@<TRIPOS>UNITY_ATOM_ATTR
1 1
charge -1
@<TRIPOS>BOND
     1    11    12    1
     2    12    10    1
     3    10     8    1
     4     8     9    2
     5     8     2    1
     6     2     6   ar
     7     2     3   ar
     8     3     4   ar
     9     3     7    1
    10     4     5   ar
    11     4    13    1
    12     5     6   ar
    13     6     1    1
    14     1    18    1
    15    18    19    2
    16    18    20    1
    17    20    24   ar
    18    20    21   ar
    19    21    22   ar
    20    22    23   ar
    21    23    24   ar
    22    23    25    1
    23    25    30   ar
    24    25    26   ar
    25    26    27   ar
    26    27    28   ar
    27    28    29   ar
    28    29    30   ar
    29    29    31    1
    30    31    32    2
    31    31    33    2
    32    13    14    2
    33    13    15    1
    34    15    16    1
    35    16    17    1
@<TRIPOS>MOLECULE
ZINC01567723
 35 38 0 0 0
SMALL
GASTEIGER

@<TRIPOS>ATOM
      1 C          17.9491   38.2419   30.3591 C.3     1  UNL1        0.1880
      2 C          18.4895   38.5634   31.7229 C.2     1  UNL1        0.0476
      3 C          19.7801   38.8469   31.9232 C.2     1  UNL1        0.1877
      4 C          20.6979   38.8588   30.7696 C.2     1  UNL1        0.2768
      5 O          21.8234   39.3022   30.8602 O.2     1  UNL1       -0.2814
      6 C          20.1725   38.2871   29.4663 C.3     1  UNL1        0.3585
      7 O          18.8134   38.7269   29.3332 O.3     1  UNL1       -0.3085
      8 C          16.5719   38.8894   30.2002 C.3     1  UNL1        0.2428
      9 O          15.9098   38.3379   29.0315 O.3     1  UNL1       -0.4424
     10 C          14.9002   37.4736   29.2515 C.2     1  UNL1        0.3413
     11 O          15.0155   36.3093   28.9252 O.2     1  UNL1       -0.2449
     12 C          11.3145   38.8183   31.0868 C.ar    1  UNL1        0.0000
     13 C          11.2576   38.1213   29.8928 C.ar    1  UNL1        0.0002
     14 C          12.4185   37.6817   29.2912 C.ar    1  UNL1        0.0064
     15 C          13.6528   37.9418   29.8897 C.ar    1  UNL1        0.0756
     16 C          13.7027   38.6414   31.0971 C.ar    1  UNL1        0.0064
     17 C          12.5344   39.0798   31.6851 C.ar    1  UNL1        0.0002
     18 O          20.9646   38.7843   28.3555 O.3     1  UNL1       -0.4143
     19 C          21.4767   37.8680   27.5111 C.2     1  UNL1        0.3433
     20 O          20.7376   37.1055   26.9214 O.2     1  UNL1       -0.2448
     21 C          22.9371   37.7904   27.3026 C.ar    1  UNL1        0.0757
     22 C          23.8043   37.8209   28.3965 C.ar    1  UNL1        0.0064
     23 C          25.1667   37.7438   28.1948 C.ar    1  UNL1        0.0002
     24 C          25.6749   37.6466   26.9115 C.ar    1  UNL1        0.0000
     25 C          24.8214   37.6208   25.8227 C.ar    1  UNL1        0.0002
     26 C          23.4567   37.6922   26.0102 C.ar    1  UNL1        0.0064
     27 O          20.2390   39.1258   33.1726 O.3     1  UNL1       -0.4181
     28 C          19.3401   39.0942   34.1755 C.2     1  UNL1        0.3458
     29 O          19.5649   38.4371   35.1722 O.2     1  UNL1       -0.2445
     30 C          18.0811   39.8586   34.0632 C.ar    1  UNL1        0.0760
     31 C          16.8537   39.1930   34.0683 C.ar    1  UNL1        0.0065
     32 C          15.6817   39.9131   33.9634 C.ar    1  UNL1        0.0002
     33 C          15.7209   41.2913   33.8482 C.ar    1  UNL1        0.0000
     34 C          16.9335   41.9578   33.8477 C.ar    1  UNL1        0.0002
     35 C          18.1130   41.2501   33.9519 C.ar    1  UNL1        0.0065
@<TRIPOS>BOND
     1    12    17   ar
     2    12    13   ar
     3    13    14   ar
     4    14    15   ar
     5    15    16   ar
     6    15    10    1
     7    16    17   ar
     8    10    11    2
     9    10     9    1
    10     9     8    1
    11     8     1    1
    12     1     7    1
    13     1     2    1
    14     2     3    2
    15     3     4    1
    16     3    27    1
    17     4     5    2
    18     4     6    1
    19     6     7    1
    20     6    18    1
    21    18    19    1
    22    19    20    2
    23    19    21    1
    24    21    26   ar
    25    21    22   ar
    26    22    23   ar
    27    23    24   ar
    28    24    25   ar
    29    25    26   ar
    30    27    28    1
    31    28    29    2
    32    28    30    1
    33    30    35   ar
    34    30    31   ar
    35    31    32   ar
    36    32    33   ar
    37    33    34   ar
    38    34    35   ar
@<TRIPOS>MOLECULE
ZINC13840659
 32 33 0 0 0
SMALL
GASTEIGER

@<TRIPOS>ATOM
      1 C          23.3304   41.0674   27.5425 C.ar    1  UNL1        0.0804
      2 C          23.1190   39.7602   27.1982 C.ar    1  UNL1       -0.0035
      3 C          21.9552   39.1552   27.6491 C.ar    1  UNL1        0.0918
      4 C          21.0773   39.9265   28.4191 C.ar    1  UNL1        0.0838
      5 S          21.8844   41.4577   28.5092 S.2     1  UNL1       -0.0678
      6 C          24.1161   39.0038   26.3588 C.3     1  UNL1        0.0320
      7 N          25.5258   42.0052   28.0260 N.am    1  UNL1       -0.2757
      8 C          24.4625   41.9309   27.2013 C.2     1  UNL1        0.2548
      9 O          24.4433   42.5816   26.1727 O.2     1  UNL1       -0.2694
     10 C          26.3626   44.2556   28.4915 C.3     1  UNL1        0.0233
     11 C          26.6109   42.9468   27.7391 C.3     1  UNL1        0.0938
     12 C          25.5966   41.1444   29.2094 C.3     1  UNL1        0.0938
     13 C          26.5104   39.9523   28.9189 C.3     1  UNL1        0.0233
     14 N          19.8679   39.5580   28.9721 N.am    1  UNL1       -0.3221
     15 H          19.0342   39.6918   28.4661 H       1  UNL1        0.1514
     16 C          19.8282   39.0151   30.2051 C.2     1  UNL1       -0.0367
     17 S          21.1660   39.1869   31.2596 S.2     1  UNL1       -0.0618
     18 N          18.7354   38.3370   30.6078 N.am    1  UNL1       -0.6259
     19 C          17.9515   38.8322   31.6567 C.ar    1  UNL1       -0.1004
     20 C          18.5319   39.1100   32.8874 C.ar    1  UNL1       -0.0207
     21 C          17.7569   39.5983   33.9207 C.ar    1  UNL1        0.0279
     22 C          16.4016   39.8110   33.7304 C.ar    1  UNL1        0.1417
     23 C          15.8210   39.5347   32.5043 C.ar    1  UNL1        0.0518
     24 C          16.5938   39.0515   31.4662 C.ar    1  UNL1        0.1224
     25 F          15.6450   40.2884   34.7427 F       1  UNL1       -0.2041
     26 N          15.9739   38.7624   30.1536 N.pl3   1  UNL1        0.0559
     27 O          16.1060   37.6627   29.6467 O.2     1  UNL1       -0.1262
     28 O          15.3318   39.6241   29.5802 O.2     1  UNL1       -0.1262
     29 C          21.6522   37.7572   27.3250 C.2     1  UNL1        0.3428
     30 O          21.3173   37.4534   26.1962 O.2     1  UNL1       -0.2448
     31 O          21.7451   36.8085   28.2789 O.3     1  UNL1       -0.4413
     32 C          22.8170   36.9507   29.2479 C.3     1  UNL1        0.2560
@<TRIPOS>UNITY_ATOM_ATTR
18 1
charge -1
@<TRIPOS>BOND
     1    10    11    1
     2    11     7    1
     3     7    12    1
     4     7     8   am
     5    12    13    1
     6     8     9    2
     7     8     1    1
     8     1     5   ar
     9     1     2   ar
    10     2     3   ar
    11     2     6    1
    12     3     4   ar
    13     3    29    1
    14     4     5   ar
    15     4    14    1
    16    14    16    1
    17    16    17    2
    18    16    18    1
    19    18    19    1
    20    19    24   ar
    21    19    20   ar
    22    20    21   ar
    23    21    22   ar
    24    22    23   ar
    25    22    25    1
    26    23    24   ar
    27    24    26    1
    28    26    27    2
    29    26    28    2
    30    29    30    2
    31    29    31    1
    32    31    32    1
    33    14    15    1
@<TRIPOS>MOLECULE
ZINC12773185
 33 35 0 0 0
SMALL
GASTEIGER

@<TRIPOS>ATOM
      1 C          23.0516   39.7649   28.2016 C.ar    1  UNL1        0.1739
      2 N          23.0481   41.0135   27.8050 N.ar    1  UNL1       -0.2224
      3 C          24.1247   41.8156   27.9795 C.ar    1  UNL1        0.0882
      4 C          24.1206   43.1462   27.5510 C.ar    1  UNL1        0.0258
      5 C          25.2487   43.9315   27.7520 C.ar    1  UNL1        0.0771
      6 C          26.3829   43.3990   28.3787 C.ar    1  UNL1        0.0067
      7 C          26.3985   42.1007   28.8009 C.ar    1  UNL1        0.0065
      8 C          25.2772   41.2942   28.6094 C.ar    1  UNL1        0.0739
      9 C          25.2509   39.8902   29.0499 C.ar    1  UNL1        0.2637
     10 O          26.2120   39.3831   29.5980 O.2     1  UNL1       -0.2669
     11 N          24.1197   39.1836   28.8229 N.ar    1  UNL1       -0.2756
     12 C          25.2522   45.3407   27.3013 C.2     1  UNL1        0.3414
     13 O          26.2135   45.7860   26.7077 O.2     1  UNL1       -0.2449
     14 O          24.1891   46.1296   27.5493 O.3     1  UNL1       -0.4413
     15 C          24.3904   47.5629   27.4328 C.3     1  UNL1        0.2560
     16 S          21.6083   38.7921   27.9267 S.3     1  UNL1       -0.0689
     17 C          20.4864   39.5475   29.1296 C.3     1  UNL1        0.1339
     18 C          19.8002   38.4666   29.9244 C.2     1  UNL1        0.1840
     19 O          20.0878   37.3031   29.7399 O.2     1  UNL1       -0.2904
     20 C          15.8184   39.8592   33.8300 C.3     1  UNL1        0.0307
     21 C          16.8622   39.4938   32.8063 C.ar    1  UNL1       -0.0261
     22 C          18.2040   39.5462   33.1422 C.ar    1  UNL1       -0.0087
     23 C          19.1648   39.2083   32.2129 C.ar    1  UNL1       -0.0194
     24 C          18.7809   38.8229   30.9243 C.ar    1  UNL1        0.0313
     25 C          17.4234   38.7725   30.5927 C.ar    1  UNL1       -0.0020
     26 C          16.4742   39.1080   31.5353 C.ar    1  UNL1       -0.0257
     27 C          15.0106   39.0539   31.1802 C.3     1  UNL1        0.0307
     28 C          20.6248   39.2600   32.5825 C.3     1  UNL1        0.0311
     29 C          24.0423   37.7818   29.2416 C.3     1  UNL1        0.1136
     30 C          23.6112   37.7106   30.7079 C.3     1  UNL1        0.0567
     31 C          24.5507   36.7744   31.4706 C.3     1  UNL1        0.1443
     32 O          25.5105   36.2229   30.5670 O.3     1  UNL1       -0.3510
     33 C          26.8053   36.0308   31.1403 C.3     1  UNL1        0.1741
@<TRIPOS>BOND
     1    20    21    1
     2    21    26   ar
     3    21    22   ar
     4    22    23   ar
     5    23    24   ar
     6    23    28    1
     7    24    25   ar
     8    24    18    1
     9    25    26   ar
    10    26    27    1
    11    18    19    2
    12    18    17    1
    13    17    16    1
    14    16     1    1
    15     1    11   ar
    16     1     2   ar
    17     2     3   ar
    18     3     8   ar
    19     3     4   ar
    20     4     5   ar
    21     5     6   ar
    22     5    12    1
    23     6     7   ar
    24     7     8   ar
    25     8     9   ar
    26     9    10    2
    27     9    11   ar
    28    11    29    1
    29    29    30    1
    30    30    31    1
    31    31    32    1
    32    32    33    1
    33    12    13    2
    34    12    14    1
    35    14    15    1
@<TRIPOS>MOLECULE
ZINC28605414
 35 38 0 0 0
SMALL
GASTEIGER

@<TRIPOS>ATOM
      1 C          23.4806   40.1810   28.1746 C.ar    1  UNL1        0.0032
      2 C          22.1520   40.6239   28.1514 C.ar    1  UNL1        0.0033
      3 C          21.1796   39.9177   28.8234 C.ar    1  UNL1        0.0401
      4 C          21.5123   38.7662   29.5255 C.ar    1  UNL1        0.1727
      5 C          22.8331   38.3182   29.5537 C.ar    1  UNL1        0.1727
      6 C          23.8157   39.0224   28.8873 C.ar    1  UNL1        0.0401
      7 C          24.5346   42.2862   27.5123 C.2     1  UNL1        0.0050
      8 C          24.5196   40.9318   27.4596 C.2     1  UNL1        0.0004
      9 C          25.5311   43.0064   26.8266 C.2     1  UNL1        0.0484
     10 O          25.6933   42.8346   25.6350 O.2     1  UNL1       -0.3252
     11 C          24.2959   47.7982   27.5625 C.3     1  UNL1        0.0725
     12 C          25.0192   46.4764   27.5903 C.ar    1  UNL1        0.1238
     13 C          24.9900   45.7369   28.7127 C.ar    1  UNL1        0.0380
     14 C          25.6630   44.5013   28.7920 C.ar    1  UNL1        0.0511
     15 O          25.6543   43.8577   29.8219 O.2     1  UNL1       -0.3251
     16 C          26.3966   43.9905   27.5706 C.2     1  UNL1       -0.1411
     17 C          26.6917   45.1884   26.6890 C.ar    1  UNL1        0.1910
     18 O          27.7798   45.3524   26.1898 O.2     1  UNL1       -0.2859
     19 O          25.6794   46.0654   26.4891 O.2     1  UNL1       -0.4528
     20 O          23.1537   37.1904   30.2425 O.3     1  UNL1       -0.4676
     21 C          24.3091   37.2490   31.0814 C.3     1  UNL1        0.2321
     22 C          25.2169   36.0876   30.7678 C.ar    1  UNL1        0.0212
     23 C          25.2625   34.9973   31.6163 C.ar    1  UNL1       -0.0007
     24 C          26.0952   33.9320   31.3287 C.ar    1  UNL1       -0.0002
     25 C          26.8862   33.9594   30.1954 C.ar    1  UNL1       -0.0000
     26 C          26.8366   35.0474   29.3441 C.ar    1  UNL1       -0.0002
     27 C          26.0037   36.1125   29.6314 C.ar    1  UNL1       -0.0007
     28 O          20.5487   38.0742   30.1863 O.3     1  UNL1       -0.4676
     29 C          19.3426   38.7755   30.4950 C.3     1  UNL1        0.2321
     30 C          19.3380   39.1485   31.9551 C.ar    1  UNL1        0.0212
     31 C          20.5315   39.2596   32.6438 C.ar    1  UNL1       -0.0007
     32 C          20.5275   39.6070   33.9818 C.ar    1  UNL1       -0.0002
     33 C          19.3296   39.8323   34.6339 C.ar    1  UNL1       -0.0000
     34 C          18.1359   39.7155   33.9466 C.ar    1  UNL1       -0.0002
     35 C          18.1401   39.3738   32.6072 C.ar    1  UNL1       -0.0007
@<TRIPOS>UNITY_ATOM_ATTR
16 1
charge -1
@<TRIPOS>BOND
     1    11    12    1
     2    12    19   ar
     3    12    13   ar
     4    13    14   ar
     5    14    15    2
     6    14    16   ar
     7    16    17   ar
     8    16     9    1
     9    17    18    2
    10    17    19   ar
    11     9    10    2
    12     9     7    1
    13     7     8    2
    14     8     1    1
    15     1     6   ar
    16     1     2   ar
    17     2     3   ar
    18     3     4   ar
    19     4     5   ar
    20     4    28    1
    21     5     6   ar
    22     5    20    1
    23    20    21    1
    24    21    22    1
    25    22    27   ar
    26    22    23   ar
    27    23    24   ar
    28    24    25   ar
    29    25    26   ar
    30    26    27   ar
    31    28    29    1
    32    29    30    1
    33    30    35   ar
    34    30    31   ar
    35    31    32   ar
    36    32    33   ar
    37    33    34   ar
    38    34    35   ar
@<TRIPOS>MOLECULE
ZINC02805680
 34 36 0 0 0
SMALL
GASTEIGER

@<TRIPOS>ATOM
      1 C          24.2007   38.2724   26.6974 C.2     1  UNL1        0.0762
      2 C          25.2916   37.5079   26.8781 C.2     1  UNL1        0.0684
      3 N          25.6882   37.1386   28.1345 N.pl3   1  UNL1       -0.2807
      4 C          24.8166   37.2222   29.1858 C.2     1  UNL1        0.0684
      5 C          23.7064   37.9755   29.1016 C.2     1  UNL1        0.0762
      6 C          23.3829   38.7577   27.8605 C.3     1  UNL1        0.0820
      7 C          23.6802   40.2155   28.1011 C.ar    1  UNL1       -0.0122
      8 C          22.6439   41.1082   28.3025 C.ar    1  UNL1       -0.0038
      9 C          22.9166   42.4451   28.5231 C.ar    1  UNL1       -0.0029
     10 C          24.2256   42.8895   28.5427 C.ar    1  UNL1        0.0006
     11 C          25.2616   41.9969   28.3426 C.ar    1  UNL1        0.1386
     12 C          24.9890   40.6588   28.1258 C.ar    1  UNL1        0.0201
     13 C          24.5230   44.3473   28.7827 C.3     1  UNL1        0.0328
     14 N          26.6631   42.4727   28.3640 N.pl3   1  UNL1        0.0573
     15 O          27.3457   42.3117   29.3598 O.2     1  UNL1       -0.1261
     16 O          27.1337   43.0251   27.3858 O.2     1  UNL1       -0.1261
     17 C          23.8147   38.6275   25.3841 C.2     1  UNL1        0.3391
     18 O          22.6888   38.3816   24.9935 O.2     1  UNL1       -0.2452
     19 O          24.6949   39.2388   24.5640 O.3     1  UNL1       -0.4456
     20 C          24.9266   41.6436   24.6283 C.3     1  UNL1        0.0513
     21 C          24.2653   40.4492   23.9376 C.3     1  UNL1        0.2089
     22 C          22.8238   38.0325   30.2050 C.2     1  UNL1        0.3391
     23 O          23.2656   38.0221   31.3388 O.2     1  UNL1       -0.2452
     24 O          21.4915   38.0982   30.0006 O.3     1  UNL1       -0.4456
     25 C          20.7538   39.0088   30.8184 C.3     1  UNL1        0.2089
     26 C          19.3022   38.5372   30.9254 C.3     1  UNL1        0.0513
     27 C          27.0520   36.6513   28.3548 C.3     1  UNL1        0.1221
     28 C          27.0516   35.1442   28.3633 C.ar    1  UNL1       -0.0019
     29 C          27.0497   34.4603   29.5648 C.ar    1  UNL1       -0.0003
     30 C          27.0444   33.0784   29.5739 C.ar    1  UNL1        0.0294
     31 C          27.0518   32.3787   28.3789 C.ar    1  UNL1        0.1401
     32 C          27.0590   33.0648   27.1763 C.ar    1  UNL1        0.0294
     33 C          27.0590   34.4468   27.1698 C.ar    1  UNL1       -0.0003
     34 F          27.0514   31.0278   28.3866 F       1  UNL1       -0.2042
@<TRIPOS>BOND
     1    20    21    1
     2    21    19    1
     3    19    17    1
     4    17    18    2
     5    17     1    1
     6     1     6    1
     7     1     2    2
     8     2     3    1
     9     3     4    1
    10     3    27    1
    11     4     5    2
    12     5     6    1
    13     5    22    1
    14     6     7    1
    15     7    12   ar
    16     7     8   ar
    17     8     9   ar
    18     9    10   ar
    19    10    11   ar
    20    10    13    1
    21    11    12   ar
    22    11    14    1
    23    14    15    2
    24    14    16    2
    25    22    23    2
    26    22    24    1
    27    24    25    1
    28    25    26    1
    29    27    28    1
    30    28    33   ar
    31    28    29   ar
    32    29    30   ar
    33    30    31   ar
    34    31    32   ar
    35    31    34    1
    36    32    33   ar
@<TRIPOS>MOLECULE
ZINC13898747
 35 38 0 0 0
SMALL
GASTEIGER

@<TRIPOS>ATOM
      1 C          19.4936   39.5030   33.4567 C.ar    1  UNL1        0.1386
      2 C          20.4043   39.3643   34.4928 C.ar    1  UNL1        0.0369
      3 C          20.3857   40.2467   35.5549 C.ar    1  UNL1        0.0031
      4 C          19.4596   41.2782   35.5969 C.ar    1  UNL1        0.0002
      5 C          18.5504   41.4388   34.5766 C.ar    1  UNL1        0.0030
      6 C          18.5516   40.5475   33.4937 C.ar    1  UNL1        0.0342
      7 C          17.5844   40.7063   32.4075 C.2     1  UNL1        0.0088
      8 C          16.4075   39.9873   32.4215 C.2     1  UNL1        0.0691
      9 C          15.8889   39.1350   33.5090 C.2     1  UNL1        0.0957
     10 O          16.4218   38.9254   34.5824 O.2     1  UNL1       -0.3120
     11 N          14.7103   38.6386   33.0878 N.am    1  UNL1       -0.5490
     12 N          14.4182   39.0921   31.8017 N.am    1  UNL1       -0.3477
     13 C          15.3938   39.9042   31.3525 C.2     1  UNL1        0.2395
     14 O          15.4323   40.4623   30.2722 O.2     1  UNL1       -0.2708
     15 C          13.2684   38.7549   31.0808 C.ar    1  UNL1        0.0391
     16 C          13.3641   37.9445   29.9570 C.ar    1  UNL1        0.0138
     17 C          12.2266   37.6137   29.2471 C.ar    1  UNL1        0.0012
     18 C          10.9938   38.0927   29.6510 C.ar    1  UNL1        0.0001
     19 C          10.8943   38.8954   30.7727 C.ar    1  UNL1        0.0012
     20 C          12.0280   39.2300   31.4870 C.ar    1  UNL1        0.0138
     21 O          19.5109   38.6372   32.4135 O.3     1  UNL1       -0.4714
     22 C          20.4520   38.8972   31.3700 C.3     1  UNL1        0.2525
     23 C          19.7897   38.6512   30.0129 C.3     1  UNL1        0.2526
     24 O          20.7964   38.4020   29.0298 O.3     1  UNL1       -0.4684
     25 C          23.0451   39.1212   28.7003 C.ar    1  UNL1        0.1721
     26 C          23.9467   40.1443   28.4545 C.ar    1  UNL1        0.0361
     27 C          23.4945   41.4412   28.2977 C.ar    1  UNL1       -0.0146
     28 C          22.1433   41.7208   28.3850 C.ar    1  UNL1       -0.0006
     29 C          21.2380   40.7039   28.6248 C.ar    1  UNL1        0.0397
     30 C          21.6852   39.4026   28.7887 C.ar    1  UNL1        0.1724
     31 C          24.0313   37.4971   30.1307 C.3     1  UNL1        0.2526
     32 O          23.4883   37.8449   28.8554 O.3     1  UNL1       -0.4684
     33 C          24.4765   42.5527   28.0305 C.3     1  UNL1        0.0524
     34 C          24.1664   43.7233   28.9276 C.2     1  UNL1       -0.0214
     35 C          24.1251   44.9353   28.4322 C.2     1  UNL1       -0.0046
@<TRIPOS>UNITY_ATOM_ATTR
11 1
charge -1
@<TRIPOS>BOND
     1    31    32    1
     2    32    25    1
     3    25    30   ar
     4    25    26   ar
     5    26    27   ar
     6    27    28   ar
     7    27    33    1
     8    28    29   ar
     9    29    30   ar
    10    30    24    1
    11    24    23    1
    12    23    22    1
    13    22    21    1
    14    21     1    1
    15     1     6   ar
    16     1     2   ar
    17     2     3   ar
    18     3     4   ar
    19     4     5   ar
    20     5     6   ar
    21     6     7    1
    22     7     8    2
    23     8    13    1
    24     8     9    1
    25     9    10    2
    26     9    11    1
    27    11    12    1
    28    12    13   am
    29    12    15    1
    30    13    14    2
    31    15    20   ar
    32    15    16   ar
    33    16    17   ar
    34    17    18   ar
    35    18    19   ar
    36    19    20   ar
    37    33    34    1
    38    34    35    2
@<TRIPOS>MOLECULE
ZINC21757289
 33 35 0 0 0
SMALL
GASTEIGER

@<TRIPOS>ATOM
      1 C          24.5670   38.1065   28.0016 C.ar    1  UNL1       -0.1123
      2 C          24.3425   37.4773   29.2209 C.ar    1  UNL1       -0.0238
      3 C          23.1273   37.6173   29.8563 C.ar    1  UNL1       -0.0003
      4 C          22.1189   38.3812   29.2696 C.ar    1  UNL1        0.0193
      5 C          22.3444   39.0065   28.0439 C.ar    1  UNL1       -0.0003
      6 C          23.5630   38.8686   27.4148 C.ar    1  UNL1       -0.0238
      7 C          20.8087   38.5278   29.9480 C.ar    1  UNL1        0.1031
      8 C          20.7525   38.9266   31.2878 C.ar    1  UNL1        0.0257
      9 C          19.5060   39.0488   31.8762 C.ar    1  UNL1        0.0608
     10 C          18.3842   38.7673   31.0982 C.ar    1  UNL1        0.2438
     11 N          18.5314   38.3959   29.8366 N.ar    1  UNL1       -0.1103
     12 N          19.6853   38.2865   29.2854 N.ar    1  UNL1       -0.1451
     13 O          17.1421   38.8745   31.6339 O.3     1  UNL1       -0.4593
     14 C          17.0368   39.5212   32.9039 C.3     1  UNL1        0.2070
     15 C          15.6250   40.0863   33.0729 C.3     1  UNL1        0.0438
     16 C          15.6983   41.4362   33.7893 C.3     1  UNL1        0.0038
     17 C          14.9826   40.2734   31.6969 C.3     1  UNL1        0.0038
     18 N          25.7998   37.9682   27.3630 N.pl3   1  UNL1       -0.5357
     19 S          25.9222   37.0527   25.9886 S.O2    1  UNL1       -0.0549
     20 O          26.9604   37.6289   25.2080 O.2     1  UNL1       -0.1841
     21 O          24.6009   36.8845   25.4937 O.2     1  UNL1       -0.1841
     22 C          26.6486   34.4581   25.5247 C.ar    1  UNL1        0.1541
     23 C          27.0916   33.2012   25.9110 C.ar    1  UNL1        0.0379
     24 C          27.3733   32.9475   27.2392 C.ar    1  UNL1       -0.0011
     25 C          27.2041   33.9418   28.1852 C.ar    1  UNL1       -0.0211
     26 C          26.7634   35.1951   27.8030 C.ar    1  UNL1        0.0157
     27 C          26.4850   35.4554   26.4748 C.ar    1  UNL1        0.1228
     28 C          27.5064   33.6605   29.6345 C.3     1  UNL1        0.0224
     29 C          27.2256   32.1873   29.9375 C.3     1  UNL1        0.0047
     30 C          26.6223   34.5408   30.5201 C.3     1  UNL1        0.0047
     31 O          26.3760   34.7118   24.2179 O.3     1  UNL1       -0.4742
     32 C          27.3123   34.1162   22.0710 C.3     1  UNL1        0.0512
     33 C          26.5401   33.6298   23.2990 C.3     1  UNL1        0.2056
@<TRIPOS>UNITY_ATOM_ATTR
18 1
charge -1
@<TRIPOS>BOND
     1    32    33    1
     2    33    31    1
     3    31    22    1
     4    22    27   ar
     5    22    23   ar
     6    23    24   ar
     7    24    25   ar
     8    25    26   ar
     9    25    28    1
    10    26    27   ar
    11    27    19    1
    12    19    20    2
    13    19    21    2
    14    19    18    1
    15    18     1    1
    16     1     6   ar
    17     1     2   ar
    18     2     3   ar
    19     3     4   ar
    20     4     5   ar
    21     4     7    1
    22     5     6   ar
    23     7    12   ar
    24     7     8   ar
    25     8     9   ar
    26     9    10   ar
    27    10    11   ar
    28    10    13    1
    29    11    12   ar
    30    13    14    1
    31    14    15    1
    32    15    16    1
    33    15    17    1
    34    28    29    1
    35    28    30    1
@<TRIPOS>MOLECULE
ZINC28439744
 34 36 0 0 0
SMALL
GASTEIGER

@<TRIPOS>ATOM
      1 C          21.6336   38.6899   28.0711 C.2     1  UNL1        0.3431
      2 O          21.3127   38.0554   27.0856 O.2     1  UNL1       -0.2448
      3 C          24.4839   37.2200   30.0264 C.ar    1  UNL1        0.1758
      4 C          23.2299   37.3919   29.4707 C.ar    1  UNL1        0.0484
      5 C          22.9707   38.5037   28.6647 C.ar    1  UNL1        0.1043
      6 C          23.9807   39.4389   28.4227 C.ar    1  UNL1        0.1860
      7 C          25.2341   39.2591   28.9761 C.ar    1  UNL1        0.1979
      8 C          25.4882   38.1533   29.7837 C.ar    1  UNL1        0.2078
      9 N          23.7098   40.6178   27.5695 N.pl3   1  UNL1        0.0610
     10 O          23.8433   40.5387   26.3614 O.2     1  UNL1       -0.1260
     11 O          23.3487   41.6655   28.0750 O.2     1  UNL1       -0.1260
     12 C          24.6993   36.3388   32.2249 C.3     1  UNL1        0.2526
     13 O          24.7370   36.1381   30.8105 O.3     1  UNL1       -0.4683
     14 O          26.7201   37.9816   30.3307 O.3     1  UNL1       -0.4653
     15 C          27.6268   37.1262   29.6319 C.3     1  UNL1        0.2528
     16 O          26.2192   40.1657   28.7360 O.3     1  UNL1       -0.4666
     17 C          26.9960   39.9810   27.5509 C.3     1  UNL1        0.2527
     18 O          20.7677   39.5634   28.6213 O.3     1  UNL1       -0.4426
     19 C          20.4533   39.3831   30.0274 C.3     1  UNL1        0.2407
     20 C          19.6293   38.1065   30.2061 C.3     1  UNL1        0.1902
     21 O          18.9791   38.1333   31.4784 O.3     1  UNL1       -0.3435
     22 C          18.4097   39.4003   31.8135 C.3     1  UNL1        0.1599
     23 C          16.9096   39.2743   31.8830 C.ar    1  UNL1        0.0087
     24 C          16.1757   39.1058   30.7236 C.ar    1  UNL1       -0.0016
     25 C          14.8001   38.9854   30.7877 C.ar    1  UNL1       -0.0002
     26 C          14.1575   39.0435   32.0103 C.ar    1  UNL1       -0.0000
     27 C          14.8908   39.2177   33.1691 C.ar    1  UNL1       -0.0002
     28 C          16.2669   39.3329   33.1054 C.ar    1  UNL1       -0.0016
     29 C          18.9385   39.8508   33.1509 C.ar    1  UNL1        0.0087
     30 C          18.6578   41.1235   33.6120 C.ar    1  UNL1       -0.0016
     31 C          19.1387   41.5350   34.8408 C.ar    1  UNL1       -0.0002
     32 C          19.9089   40.6775   35.6042 C.ar    1  UNL1       -0.0000
     33 C          20.1943   39.4069   35.1404 C.ar    1  UNL1       -0.0002
     34 C          19.7089   38.9935   33.9139 C.ar    1  UNL1       -0.0016
@<TRIPOS>BOND
     1    12    13    1
     2    13     3    1
     3     3     8   ar
     4     3     4   ar
     5     4     5   ar
     6     5     6   ar
     7     5     1    1
     8     6     7   ar
     9     6     9    1
    10     7     8   ar
    11     7    16    1
    12     8    14    1
    13    14    15    1
    14    16    17    1
    15     9    10    2
    16     9    11    2
    17     1     2    2
    18     1    18    1
    19    18    19    1
    20    19    20    1
    21    20    21    1
    22    21    22    1
    23    22    23    1
    24    22    29    1
    25    23    28   ar
    26    23    24   ar
    27    24    25   ar
    28    25    26   ar
    29    26    27   ar
    30    27    28   ar
    31    29    34   ar
    32    29    30   ar
    33    30    31   ar
    34    31    32   ar
    35    32    33   ar
    36    33    34   ar
@<TRIPOS>MOLECULE
ZINC21851387
 33 34 0 0 0
SMALL
GASTEIGER

@<TRIPOS>ATOM
      1 C          22.9664   41.0042   27.7658 C.2     1  UNL1        0.0614
      2 C          22.0955   40.1450   28.4128 C.ar    1  UNL1        0.0961
      3 N          21.6940   38.8875   28.0297 N.ar    1  UNL1       -0.2807
      4 C          20.8521   38.1904   28.7739 C.ar    1  UNL1        0.2676
      5 O          20.4920   37.0735   28.4520 O.2     1  UNL1       -0.2664
      6 C          20.3650   38.8329   30.0114 C.ar    1  UNL1        0.0869
      7 C          19.5045   38.3584   30.9471 C.2     1  UNL1        0.0114
      8 S          21.2207   40.4005   29.9481 S.2     1  UNL1       -0.0648
      9 C          19.2982   39.1003   32.1991 C.ar    1  UNL1        0.0023
     10 C          20.2925   39.1082   33.1842 C.ar    1  UNL1        0.0001
     11 C          20.0913   39.8067   34.3554 C.ar    1  UNL1        0.0017
     12 C          18.9097   40.4988   34.5588 C.ar    1  UNL1        0.0241
     13 C          17.9215   40.4960   33.5898 C.ar    1  UNL1        0.1429
     14 C          18.1092   39.8071   32.4102 C.ar    1  UNL1        0.0241
     15 N          16.6621   41.2394   33.8179 N.pl3   1  UNL1        0.0577
     16 O          16.3176   42.1082   33.0368 O.2     1  UNL1       -0.1261
     17 O          15.9699   40.9823   34.7867 O.2     1  UNL1       -0.1261
     18 C          23.2512   42.2483   28.3152 C.2     1  UNL1        0.1743
     19 O          22.3476   42.9560   28.7201 O.2     1  UNL1       -0.2913
     20 C          24.7505   43.9478   29.3217 C.3     1  UNL1        0.0077
     21 C          24.6789   42.7213   28.4099 C.3     1  UNL1        0.0556
     22 C          25.5491   41.6038   28.9888 C.3     1  UNL1        0.0077
     23 C          25.1867   43.0924   27.0151 C.3     1  UNL1        0.0077
     24 C          22.2102   38.3100   26.7862 C.3     1  UNL1        0.1946
     25 C          23.6701   37.9763   26.9553 C.2     1  UNL1        0.2493
     26 O          24.0463   37.3856   27.9455 O.2     1  UNL1       -0.2727
     27 N          24.5575   38.3343   26.0063 N.am    1  UNL1       -0.2698
     28 C          24.1031   39.0478   24.8102 C.3     1  UNL1        0.1202
     29 C          25.0158   40.2174   24.5459 C.2     1  UNL1       -0.0047
     30 C          24.6006   41.2195   23.8112 C.2     1  UNL1       -0.0031
     31 C          25.9767   38.0099   26.1707 C.3     1  UNL1        0.1202
     32 C          26.2816   36.7157   25.4616 C.2     1  UNL1       -0.0047
     33 C          26.6677   35.6683   26.1470 C.2     1  UNL1       -0.0031
@<TRIPOS>BOND
     1    20    21    1
     2    21    22    1
     3    21    23    1
     4    21    18    1
     5    18    19    2
     6    18     1    1
     7     1     2    2
     8     2     8   ar
     9     2     3   ar
    10     3     4   ar
    11     3    24    1
    12     4     5    2
    13     4     6   ar
    14     6     7    2
    15     6     8   ar
    16     7     9    1
    17     9    14   ar
    18     9    10   ar
    19    10    11   ar
    20    11    12   ar
    21    12    13   ar
    22    13    14   ar
    23    13    15    1
    24    15    16    2
    25    15    17    2
    26    24    25    1
    27    25    26    2
    28    25    27   am
    29    27    28    1
    30    27    31    1
    31    28    29    1
    32    29    30    2
    33    31    32    1
    34    32    33    2
@<TRIPOS>MOLECULE
ZINC15776695
 35 38 0 0 0
SMALL
GASTEIGER

@<TRIPOS>ATOM
      1 C          25.4467   37.1861   28.4995 C.ar    1  UNL1        0.0509
      2 C          25.0712   36.6997   29.7505 C.ar    1  UNL1        0.0147
      3 C          23.9597   37.1867   30.3751 C.ar    1  UNL1        0.0043
      4 C          23.1876   38.1817   29.7598 C.ar    1  UNL1        0.0348
      5 C          23.5605   38.6707   28.4945 C.ar    1  UNL1        0.1422
      6 C          24.6923   38.1726   27.8754 C.ar    1  UNL1        0.0515
      7 C          21.9945   38.7055   30.4285 C.2     1  UNL1        0.0133
      8 C          20.7605   38.2371   30.0868 C.2     1  UNL1        0.0685
      9 C          19.5703   38.6485   30.8663 C.ar    1  UNL1        0.0097
     10 C          18.2932   38.4994   30.3253 C.ar    1  UNL1        0.0024
     11 C          17.1879   38.8797   31.0585 C.ar    1  UNL1        0.0241
     12 C          17.3450   39.4181   32.3233 C.ar    1  UNL1        0.1429
     13 C          18.6094   39.5733   32.8632 C.ar    1  UNL1        0.0241
     14 C          19.7222   39.1920   32.1419 C.ar    1  UNL1        0.0024
     15 N          16.1552   39.8293   33.1024 N.pl3   1  UNL1        0.0577
     16 O          15.7554   40.9783   33.0427 O.2     1  UNL1       -0.1261
     17 O          15.5760   39.0186   33.8031 O.2     1  UNL1       -0.1261
     18 C          20.6159   37.3429   28.9776 C.1     1  UNL1        0.1004
     19 N          20.5013   36.6335   28.0978 N.1     1  UNL1       -0.1908
     20 N          26.5821   36.6814   27.8721 N.pl3   1  UNL1       -0.3074
     21 C          26.9036   34.6634   26.5283 C.3     1  UNL1        0.0232
     22 C          26.4881   36.1358   26.5158 C.3     1  UNL1        0.0908
     23 C          27.8710   36.6957   28.5683 C.3     1  UNL1        0.0908
     24 C          28.4182   38.1242   28.5990 C.3     1  UNL1        0.0232
     25 O          22.8168   39.6300   27.8875 O.3     1  UNL1       -0.4520
     26 C          23.5253   40.6460   27.1747 C.3     1  UNL1        0.3398
     27 N          23.4335   41.9111   27.9077 N.ar    1  UNL1       -0.1904
     28 C          24.4256   42.8515   28.0529 C.ar    1  UNL1        0.1026
     29 C          25.7361   42.9519   27.5979 C.ar    1  UNL1        0.0205
     30 C          26.4836   44.0508   27.9166 C.ar    1  UNL1        0.0016
     31 C          25.9444   45.0728   28.6878 C.ar    1  UNL1        0.0017
     32 C          24.6600   45.0011   29.1413 C.ar    1  UNL1        0.0225
     33 C          23.8722   43.8852   28.8282 C.ar    1  UNL1        0.1218
     34 N          22.6034   43.5398   29.1249 N.ar    1  UNL1       -0.1287
     35 N          22.3180   42.3984   28.6048 N.ar    1  UNL1       -0.0608
@<TRIPOS>BOND
     1    21    22    1
     2    22    20    1
     3    20    23    1
     4    20     1    1
     5    23    24    1
     6     1     6   ar
     7     1     2   ar
     8     2     3   ar
     9     3     4   ar
    10     4     5   ar
    11     4     7    1
    12     5     6   ar
    13     5    25    1
    14    25    26    1
    15    26    27    1
    16    27    35   ar
    17    27    28   ar
    18    28    33   ar
    19    28    29   ar
    20    29    30   ar
    21    30    31   ar
    22    31    32   ar
    23    32    33   ar
    24    33    34   ar
    25    34    35   ar
    26     7     8    2
    27     8    18    1
    28     8     9    1
    29    18    19    3
    30     9    14   ar
    31     9    10   ar
    32    10    11   ar
    33    11    12   ar
    34    12    13   ar
    35    12    15    1
    36    13    14   ar
    37    15    16    2
    38    15    17    2
@<TRIPOS>MOLECULE
ZINC14253553
 30 31 0 0 0
SMALL
GASTEIGER

@<TRIPOS>ATOM
      1 C          22.1268   38.4188   28.9602 C.ar    1  UNL1        0.0741
      2 C          22.5851   39.6648   28.5360 C.ar    1  UNL1        0.0128
      3 C          23.9547   39.9097   28.4562 C.ar    1  UNL1        0.0741
      4 C          24.8631   38.9069   28.8014 C.ar    1  UNL1       -0.0174
      5 C          24.4034   37.6677   29.2234 C.ar    1  UNL1       -0.1119
      6 C          23.0406   37.4223   29.3089 C.ar    1  UNL1       -0.0174
      7 C          20.6756   38.1548   29.0467 C.2     1  UNL1        0.3410
      8 O          20.2017   37.1804   28.4975 O.2     1  UNL1       -0.2449
      9 O          19.8781   38.9945   29.7348 O.3     1  UNL1       -0.4492
     10 C          20.2228   39.4884   32.0943 C.3     1  UNL1        0.0473
     11 C          19.5052   38.5954   31.0803 C.3     1  UNL1        0.1694
     12 C          17.9921   38.7400   31.2541 C.3     1  UNL1        0.0473
     13 C          24.4452   41.2294   28.0074 C.2     1  UNL1        0.3410
     14 O          24.6531   41.4309   26.8278 O.2     1  UNL1       -0.2449
     15 O          24.6615   42.2089   28.9064 O.3     1  UNL1       -0.4492
     16 C          24.0767   43.5068   28.6207 C.3     1  UNL1        0.1694
     17 C          22.5877   43.4837   28.9719 C.3     1  UNL1        0.0473
     18 C          24.7809   44.5784   29.4553 C.3     1  UNL1        0.0473
     19 N          25.3152   36.6665   29.5685 N.pl3   1  UNL1       -0.5358
     20 S          25.9054   36.5809   31.1134 S.O2    1  UNL1       -0.0569
     21 O          27.0237   37.4558   31.1700 O.2     1  UNL1       -0.1841
     22 O          24.7892   36.7142   31.9825 O.2     1  UNL1       -0.1841
     23 C          26.5302   34.9494   31.3427 C.ar    1  UNL1        0.1006
     24 C          26.5578   34.0645   30.2813 C.ar    1  UNL1        0.0292
     25 C          27.0483   32.7837   30.4614 C.ar    1  UNL1        0.0590
     26 C          27.5111   32.3884   31.7040 C.ar    1  UNL1        0.0123
     27 C          27.4830   33.2728   32.7653 C.ar    1  UNL1        0.0135
     28 C          26.9981   34.5561   32.5837 C.ar    1  UNL1        0.0734
     29 CL         26.9701   35.6699   33.9149 Cl      1  UNL1       -0.0810
     30 CL         27.0835   31.6723   29.1282 Cl      1  UNL1       -0.0822
@<TRIPOS>UNITY_ATOM_ATTR
19 1
charge -1
@<TRIPOS>BOND
     1    10    11    1
     2    11    12    1
     3    11     9    1
     4     9     7    1
     5     7     8    2
     6     7     1    1
     7     1     6   ar
     8     1     2   ar
     9     2     3   ar
    10     3     4   ar
    11     3    13    1
    12     4     5   ar
    13     5     6   ar
    14     5    19    1
    15    19    20    1
    16    20    21    2
    17    20    22    2
    18    20    23    1
    19    23    28   ar
    20    23    24   ar
    21    24    25   ar
    22    25    26   ar
    23    25    30    1
    24    26    27   ar
    25    27    28   ar
    26    28    29    1
    27    13    14    2
    28    13    15    1
    29    15    16    1
    30    16    17    1
    31    16    18    1
@<TRIPOS>MOLECULE
ZINC27170139
 32 34 0 0 0
SMALL
GASTEIGER

@<TRIPOS>ATOM
      1 C          12.5198   37.5124   28.5491 C.ar    1  UNL1        0.0757
      2 C          11.7676   37.9826   29.6305 C.ar    1  UNL1        0.0077
      3 C          12.4011   38.4292   30.7614 C.ar    1  UNL1        0.0161
      4 C          13.7915   38.4146   30.8344 C.ar    1  UNL1        0.0648
      5 C          14.5434   37.9525   29.7575 C.ar    1  UNL1        0.0161
      6 C          13.9161   37.4996   28.6255 C.ar    1  UNL1        0.0077
      7 C          11.8423   37.0310   27.3319 C.2     1  UNL1        0.3416
      8 O          11.1722   36.0180   27.3699 O.2     1  UNL1       -0.2449
      9 O          11.9659   37.7143   26.1770 O.3     1  UNL1       -0.4395
     10 C          10.7401   38.1712   25.5470 C.3     1  UNL1        0.2471
     11 C          10.1132   37.0206   24.7570 C.3     1  UNL1        0.0578
     12 C          10.9373   41.0525   23.4144 C.ar    1  UNL1        0.1806
     13 N          10.2302   40.2669   24.2460 N.ar    1  UNL1       -0.1919
     14 C          11.0506   39.3117   24.6122 C.ar    1  UNL1        0.2766
     15 O          12.2131   39.5398   23.9935 O.2     1  UNL1       -0.3336
     16 N          12.1274   40.5403   23.3131 N.ar    1  UNL1       -0.0605
     17 C          10.4394   42.2954   22.7227 C.3     1  UNL1        0.0692
     18 C          11.0831   42.9328   20.3942 C.3     1  UNL1        0.0005
     19 C          11.5541   42.8739   21.8487 C.3     1  UNL1        0.0081
     20 N          14.4305   38.8678   31.9827 N.pl3   1  UNL1       -0.2150
     21 H          14.3817   38.3416   32.8134 H       1  UNL1        0.1737
     22 S          15.2738   40.2927   31.9534 S.O2    1  UNL1        0.0736
     23 O          15.3294   40.7038   30.5943 O.2     1  UNL1       -0.1499
     24 O          14.7223   41.1120   32.9752 O.2     1  UNL1       -0.1499
     25 C          16.9283   39.9289   32.4377 C.ar    1  UNL1        0.1262
     26 C          17.6539   38.9718   31.7527 C.ar    1  UNL1        0.0225
     27 C          18.9537   38.6892   32.1276 C.ar    1  UNL1        0.0319
     28 C          19.5260   39.3563   33.1972 C.ar    1  UNL1        0.1507
     29 C          18.7965   40.3113   33.8868 C.ar    1  UNL1        0.0864
     30 C          17.4978   40.5965   33.5056 C.ar    1  UNL1        0.0338
     31 CL         19.5121   41.1496   35.2280 Cl      1  UNL1       -0.0799
     32 F          20.7947   39.0768   33.5680 F       1  UNL1       -0.2033
@<TRIPOS>BOND
     1    18    19    1
     2    19    17    1
     3    17    12    1
     4    12    16   ar
     5    12    13   ar
     6    13    14   ar
     7    14    15   ar
     8    14    10    1
     9    15    16   ar
    10    10    11    1
    11    10     9    1
    12     9     7    1
    13     7     8    2
    14     7     1    1
    15     1     6   ar
    16     1     2   ar
    17     2     3   ar
    18     3     4   ar
    19     4     5   ar
    20     4    20    1
    21     5     6   ar
    22    20    22    1
    23    22    23    2
    24    22    24    2
    25    22    25    1
    26    25    30   ar
    27    25    26   ar
    28    26    27   ar
    29    27    28   ar
    30    28    29   ar
    31    28    32    1
    32    29    30   ar
    33    29    31    1
    34    20    21    1
@<TRIPOS>MOLECULE
ZINC23647633
 33 35 0 0 0
SMALL
GASTEIGER

@<TRIPOS>ATOM
      1 C          24.7325   38.6665   24.9730 C.3     1  UNL1        0.0504
      2 C          23.9496   38.3841   26.2294 C.ar    1  UNL1        0.0415
      3 C          22.6250   38.1681   26.2893 C.ar    1  UNL1        0.0171
      4 C          22.3045   37.9451   27.7059 C.ar    1  UNL1        0.0487
      5 C          23.5037   38.0450   28.3862 C.ar    1  UNL1        0.0442
      6 N          24.4746   38.3038   27.4890 N.ar    1  UNL1       -0.3134
      7 C          23.6923   37.8905   29.8734 C.3     1  UNL1        0.0505
      8 C          25.8305   38.4726   27.8033 C.ar    1  UNL1        0.0638
      9 C          26.6595   37.3657   27.9067 C.ar    1  UNL1        0.0239
     10 C          28.0106   37.5299   28.2196 C.ar    1  UNL1        0.0773
     11 C          28.5267   38.8085   28.4225 C.ar    1  UNL1        0.0130
     12 C          27.6891   39.9181   28.3239 C.ar    1  UNL1        0.0773
     13 C          26.3391   39.7459   28.0106 C.ar    1  UNL1        0.0239
     14 C          28.2300   41.2752   28.5446 C.2     1  UNL1        0.3414
     15 O          28.0746   41.8239   29.6170 O.2     1  UNL1       -0.2449
     16 O          28.8954   41.9039   27.5564 O.3     1  UNL1       -0.4413
     17 C          28.1819   42.9466   26.8408 C.3     1  UNL1        0.2560
     18 C          28.8931   36.3499   28.3295 C.2     1  UNL1        0.3414
     19 O          29.0718   35.6332   27.3651 O.2     1  UNL1       -0.2449
     20 O          29.4996   36.0689   29.4990 O.3     1  UNL1       -0.4413
     21 C          28.6429   35.7283   30.6207 C.3     1  UNL1        0.2560
     22 C          20.9852   37.6721   28.2793 C.2     1  UNL1        0.1853
     23 O          20.5431   36.5420   28.2734 O.2     1  UNL1       -0.2904
     24 C          20.1763   38.7944   28.8768 C.3     1  UNL1        0.1307
     25 S          20.0770   38.5779   30.6711 S.3     1  UNL1       -0.1094
     26 C          18.3385   38.7449   30.9037 C.ar    1  UNL1        0.0083
     27 N          17.7092   39.1910   32.0303 N.ar    1  UNL1       -0.2488
     28 C          16.3717   39.1499   31.7485 C.ar    1  UNL1        0.1178
     29 N          16.2450   38.6969   30.5334 N.ar    1  UNL1       -0.3520
     30 N          17.4029   38.4640   30.0265 N.ar    1  UNL1       -0.5548
     31 C          15.2515   39.5538   32.6722 C.3     1  UNL1        0.0571
     32 C          15.4133   41.0258   33.0569 C.3     1  UNL1        0.0079
     33 C          13.9099   39.3565   31.9636 C.3     1  UNL1        0.0079
@<TRIPOS>UNITY_ATOM_ATTR
30 1
charge -1
@<TRIPOS>BOND
     1     1     2    1
     2     2     6   ar
     3     2     3   ar
     4     3     4   ar
     5     4     5   ar
     6     4    22    1
     7     5     6   ar
     8     5     7    1
     9     6     8    1
    10     8    13   ar
    11     8     9   ar
    12     9    10   ar
    13    10    11   ar
    14    10    18    1
    15    11    12   ar
    16    12    13   ar
    17    12    14    1
    18    14    15    2
    19    14    16    1
    20    16    17    1
    21    18    19    2
    22    18    20    1
    23    20    21    1
    24    22    23    2
    25    22    24    1
    26    24    25    1
    27    25    26    1
    28    26    27   ar
    29    26    30   ar
    30    27    28   ar
    31    28    31    1
    32    28    29   ar
    33    29    30   ar
    34    31    32    1
    35    31    33    1
@<TRIPOS>MOLECULE
ZINC27533677
 33 35 0 0 0
SMALL
GASTEIGER

@<TRIPOS>ATOM
      1 N          19.2812   38.7075   30.6842 N.ar    1  UNL1       -0.1773
      2 C          18.9173   39.1608   31.9014 C.ar    1  UNL1        0.1852
      3 S          19.9746   39.6761   33.1455 S.2     1  UNL1       -0.0110
      4 N          17.5711   39.1349   31.9612 N.ar    1  UNL1       -0.2870
      5 C          17.0932   38.6560   30.7574 C.ar    1  UNL1        0.1652
      6 N          18.1089   38.3906   29.9845 N.ar    1  UNL1       -0.1452
      7 C          15.6679   38.4696   30.4060 C.ar    1  UNL1        0.0375
      8 C          14.6700   38.8338   31.3105 C.ar    1  UNL1        0.0031
      9 C          13.3429   38.6619   30.9750 C.ar    1  UNL1        0.0018
     10 C          13.0008   38.1198   29.7488 C.ar    1  UNL1        0.0241
     11 C          13.9855   37.7568   28.8476 C.ar    1  UNL1        0.1430
     12 C          15.3165   37.9285   29.1693 C.ar    1  UNL1        0.0271
     13 N          13.6109   37.1824   27.5359 N.pl3   1  UNL1        0.0577
     14 O          13.7343   35.9871   27.3370 O.2     1  UNL1       -0.1261
     15 O          13.1792   37.9049   26.6556 O.2     1  UNL1       -0.1261
     16 C          20.6518   38.5671   30.1863 C.3     1  UNL1        0.2437
     17 C          20.8741   36.9035   28.4410 C.3     1  UNL1        0.1698
     18 N          20.6239   38.3202   28.7384 N.4     1  UNL1        0.3031
     19 H          19.6903   38.5516   28.3989 H       1  UNL1        0.2096
     20 C          21.5854   39.1827   28.0387 C.3     1  UNL1        0.1361
     21 C          22.9428   38.5281   28.0422 C.ar    1  UNL1        0.0449
     22 C          23.6037   38.3137   29.2372 C.ar    1  UNL1        0.0263
     23 C          24.8463   37.7083   29.2411 C.ar    1  UNL1        0.1428
     24 C          25.4337   37.3265   28.0490 C.ar    1  UNL1        0.0249
     25 C          24.7762   37.5454   26.8533 C.ar    1  UNL1        0.0130
     26 C          23.5300   38.1466   26.8492 C.ar    1  UNL1        0.0593
     27 CL         22.7034   38.4214   25.3477 Cl      1  UNL1       -0.0824
     28 N          25.5514   37.4745   30.5212 N.pl3   1  UNL1        0.0577
     29 O          24.9538   36.9913   31.4661 O.2     1  UNL1       -0.1261
     30 O          26.7291   37.7655   30.6299 O.2     1  UNL1       -0.1261
     31 C          16.7548   39.5447   33.1067 C.3     1  UNL1        0.1359
     32 C          16.5950   41.0432   33.0992 C.2     1  UNL1       -0.0017
     33 C          15.6796   41.6080   33.8469 C.2     1  UNL1       -0.0029
@<TRIPOS>UNITY_ATOM_ATTR
18 1
charge 1
@<TRIPOS>BOND
     1    17    18    1
     2    18    20    1
     3    18    16    1
     4    20    21    1
     5    21    26   ar
     6    21    22   ar
     7    22    23   ar
     8    23    24   ar
     9    23    28    1
    10    24    25   ar
    11    25    26   ar
    12    26    27    1
    13    28    29    2
    14    28    30    2
    15    16     1    1
    16     1     6   ar
    17     1     2   ar
    18     2     3    2
    19     2     4   ar
    20     4     5   ar
    21     4    31    1
    22     5     6   ar
    23     5     7    1
    24     7    12   ar
    25     7     8   ar
    26     8     9   ar
    27     9    10   ar
    28    10    11   ar
    29    11    12   ar
    30    11    13    1
    31    13    14    2
    32    13    15    2
    33    31    32    1
    34    32    33    2
    35    18    19    1
@<TRIPOS>MOLECULE
ZINC03478260
 32 34 0 0 0
SMALL
GASTEIGER

@<TRIPOS>ATOM
      1 C          24.4252   38.8999   27.3833 C.ar    1  UNL1        0.1256
      2 C          24.3342   38.8766   26.0026 C.ar    1  UNL1        0.0202
      3 C          23.2211   38.3343   25.3854 C.ar    1  UNL1        0.0016
      4 C          22.1935   37.8127   26.1440 C.ar    1  UNL1        0.0065
      5 C          22.2788   37.8329   27.5373 C.ar    1  UNL1        0.0770
      6 C          23.4078   38.3768   28.1536 C.ar    1  UNL1        0.0266
      7 S          25.8475   39.5930   28.1588 S.O2    1  UNL1        0.0769
      8 O          26.9726   38.8966   27.6407 O.2     1  UNL1       -0.1497
      9 O          25.5630   39.6529   29.5498 O.2     1  UNL1       -0.1497
     10 N          25.9772   41.1585   27.6344 N.pl3   1  UNL1       -0.1862
     11 C          25.1292   42.1407   28.1510 C.ar    1  UNL1        0.0692
     12 C          23.7653   42.0888   27.8926 C.ar    1  UNL1        0.0161
     13 C          22.9289   43.0589   28.4089 C.ar    1  UNL1        0.0013
     14 C          23.4491   44.0870   29.1736 C.ar    1  UNL1        0.0001
     15 C          24.8071   44.1446   29.4283 C.ar    1  UNL1        0.0013
     16 C          25.6484   43.1749   28.9194 C.ar    1  UNL1        0.0161
     17 C          26.9776   41.5120   26.6241 C.3     1  UNL1        0.1419
     18 C          26.7187   42.8893   24.6249 C.2     1  UNL1       -0.0031
     19 C          26.2842   41.8798   25.3377 C.2     1  UNL1       -0.0029
     20 C          21.1826   37.2758   28.3560 C.2     1  UNL1        0.3417
     21 O          20.3938   36.4941   27.8639 O.2     1  UNL1       -0.2449
     22 O          21.0576   37.6349   29.6484 O.3     1  UNL1       -0.4368
     23 C          20.3279   38.8593   29.9248 C.3     1  UNL1        0.2769
     24 C          19.2546   38.5847   30.9463 C.2     1  UNL1        0.2170
     25 O          18.4193   37.7317   30.7339 O.2     1  UNL1       -0.2874
     26 C          19.2200   39.3514   32.2011 C.ar    1  UNL1        0.0385
     27 C          20.4035   39.6037   32.9034 C.ar    1  UNL1        0.0038
     28 C          20.3642   40.3277   34.0755 C.ar    1  UNL1        0.0115
     29 C          19.1550   40.7951   34.5648 C.ar    1  UNL1        0.0577
     30 C          17.9782   40.5442   33.8775 C.ar    1  UNL1        0.0115
     31 C          18.0030   39.8270   32.7010 C.ar    1  UNL1        0.0038
     32 CL         19.1143   41.6999   36.0457 Cl      1  UNL1       -0.0822
@<TRIPOS>BOND
     1    18    19    2
     2    19    17    1
     3    17    10    1
     4    10    11    1
     5    10     7    1
     6    11    16   ar
     7    11    12   ar
     8    12    13   ar
     9    13    14   ar
    10    14    15   ar
    11    15    16   ar
    12     7     8    2
    13     7     9    2
    14     7     1    1
    15     1     6   ar
    16     1     2   ar
    17     2     3   ar
    18     3     4   ar
    19     4     5   ar
    20     5     6   ar
    21     5    20    1
    22    20    21    2
    23    20    22    1
    24    22    23    1
    25    23    24    1
    26    24    25    2
    27    24    26    1
    28    26    31   ar
    29    26    27   ar
    30    27    28   ar
    31    28    29   ar
    32    29    30   ar
    33    29    32    1
    34    30    31   ar
@<TRIPOS>MOLECULE
ZINC21228840
 34 36 0 0 0
SMALL
GASTEIGER

@<TRIPOS>ATOM
      1 C          21.8894   38.2938   27.1763 C.2     1  UNL1        0.3613
      2 O          21.9487   37.3480   26.4159 O.2     1  UNL1       -0.2431
      3 N          24.7286   40.4938   27.6688 N.ar    1  UNL1       -0.2165
      4 C          25.4382   40.0218   28.7143 C.ar    1  UNL1        0.2763
      5 O          26.4518   40.5853   29.0843 O.2     1  UNL1       -0.2655
      6 C          24.9570   38.8139   29.3990 C.ar    1  UNL1        0.0593
      7 C          25.6134   38.2507   30.4888 C.ar    1  UNL1        0.0048
      8 C          25.0992   37.1126   31.0729 C.ar    1  UNL1        0.0002
      9 C          23.9382   36.5270   30.5852 C.ar    1  UNL1        0.0001
     10 C          23.2734   37.0697   29.5060 C.ar    1  UNL1        0.0019
     11 C          23.7748   38.2177   28.9024 C.ar    1  UNL1        0.0304
     12 C          23.1259   38.8597   27.7475 C.ar    1  UNL1        0.1764
     13 N          23.6604   39.9411   27.2328 N.ar    1  UNL1       -0.1602
     14 C          25.2103   41.7008   26.9925 C.3     1  UNL1        0.1307
     15 C          24.1596   42.8065   27.1125 C.3     1  UNL1        0.0265
     16 C          24.7153   43.9474   27.9672 C.3     1  UNL1        0.0021
     17 C          22.5369   43.3320   29.0247 C.3     1  UNL1        0.0000
     18 C          23.8169   44.1540   29.1883 C.3     1  UNL1        0.0001
     19 O          20.6937   38.8259   27.4979 O.3     1  UNL1       -0.4358
     20 C          20.5850   39.4665   28.7964 C.3     1  UNL1        0.2770
     21 C          20.0138   38.4901   29.7921 C.2     1  UNL1        0.2171
     22 O          19.6854   37.3793   29.4322 O.2     1  UNL1       -0.2874
     23 C          19.8549   38.8834   31.1981 C.ar    1  UNL1        0.0417
     24 C          20.9826   39.0747   32.0054 C.ar    1  UNL1        0.0063
     25 C          20.8308   39.4487   33.3217 C.ar    1  UNL1        0.0403
     26 C          19.5605   39.6266   33.8551 C.ar    1  UNL1        0.1779
     27 C          18.4318   39.4324   33.0588 C.ar    1  UNL1        0.1727
     28 C          18.5747   39.0626   31.7366 C.ar    1  UNL1        0.0430
     29 O          17.1902   39.6077   33.5852 O.3     1  UNL1       -0.4684
     30 C          16.0784   39.3406   32.7281 C.3     1  UNL1        0.2526
     31 O          19.4172   39.9903   35.1550 O.3     1  UNL1       -0.4205
     32 C          19.7033   41.3514   35.4832 C.3     1  UNL1        0.5087
     33 F          19.5749   42.1443   34.3378 F       1  UNL1       -0.1550
     34 F          18.8052   41.7942   36.4601 F       1  UNL1       -0.1550
@<TRIPOS>BOND
     1    17    18    1
     2    18    16    1
     3    16    15    1
     4    15    14    1
     5    14     3    1
     6     3    13   ar
     7     3     4   ar
     8     4     5    2
     9     4     6   ar
    10     6    11   ar
    11     6     7   ar
    12     7     8   ar
    13     8     9   ar
    14     9    10   ar
    15    10    11   ar
    16    11    12   ar
    17    12    13   ar
    18    12     1    1
    19     1     2    2
    20     1    19    1
    21    19    20    1
    22    20    21    1
    23    21    22    2
    24    21    23    1
    25    23    28   ar
    26    23    24   ar
    27    24    25   ar
    28    25    26   ar
    29    26    27   ar
    30    26    31    1
    31    27    28   ar
    32    27    29    1
    33    29    30    1
    34    31    32    1
    35    32    33    1
    36    32    34    1
@<TRIPOS>MOLECULE
ZINC31686003
 34 36 0 0 0
SMALL
GASTEIGER

@<TRIPOS>ATOM
      1 O          24.4087   37.7809   26.0742 O.3     1  UNL1       -0.4241
      2 C          25.6097   37.9740   29.5174 C.ar    1  UNL1        0.0789
      3 C          25.7231   39.3537   29.6778 C.ar    1  UNL1        0.0131
      4 C          25.3879   40.2035   28.6252 C.ar    1  UNL1        0.0789
      5 C          24.9506   39.6691   27.4111 C.ar    1  UNL1        0.0440
      6 C          24.8397   38.2966   27.2558 C.ar    1  UNL1        0.1489
      7 C          25.1665   37.4484   28.3016 C.ar    1  UNL1        0.0440
      8 C          25.9574   37.0686   30.6321 C.2     1  UNL1        0.3413
      9 O          27.0305   37.1772   31.1906 O.2     1  UNL1       -0.2449
     10 O          25.0843   36.1226   31.0288 O.3     1  UNL1       -0.4454
     11 C          25.2494   35.3050   33.3167 C.3     1  UNL1        0.0513
     12 C          25.6070   35.0465   31.8517 C.3     1  UNL1        0.2089
     13 C          25.5003   41.6673   28.7916 C.2     1  UNL1        0.3413
     14 O          26.1848   42.1263   29.6838 O.2     1  UNL1       -0.2449
     15 O          24.8437   42.4927   27.9537 O.3     1  UNL1       -0.4454
     16 C          24.5712   43.8366   28.4314 C.3     1  UNL1        0.2089
     17 C          23.1206   43.9232   28.9100 C.3     1  UNL1        0.0513
     18 C          23.2178   38.2053   25.6221 C.2     1  UNL1        0.3215
     19 O          23.1647   39.0660   24.7758 O.2     1  UNL1       -0.2497
     20 C          21.9474   37.6080   26.1703 C.3     1  UNL1        0.1105
     21 C          21.4869   38.4159   27.3853 C.3     1  UNL1        0.0215
     22 C          21.6212   37.5610   28.6469 C.3     1  UNL1        0.0886
     23 C          20.6656   38.0635   29.6984 C.ar    1  UNL1        0.2366
     24 N          20.9830   38.7057   30.7948 N.ar    1  UNL1       -0.1907
     25 C          19.8113   38.9528   31.4231 C.ar    1  UNL1        0.2033
     26 N          18.8606   38.4507   30.6784 N.ar    1  UNL1       -0.0560
     27 O          19.3346   37.9424   29.6844 O.2     1  UNL1       -0.3370
     28 C          19.6369   39.6601   32.7158 C.ar    1  UNL1        0.0392
     29 C          18.4178   40.2601   33.0251 C.ar    1  UNL1        0.0055
     30 C          18.2585   40.9125   34.2302 C.ar    1  UNL1        0.0297
     31 C          19.3118   40.9808   35.1279 C.ar    1  UNL1        0.1401
     32 C          20.5273   40.3901   34.8221 C.ar    1  UNL1        0.0297
     33 C          20.6937   39.7311   33.6215 C.ar    1  UNL1        0.0055
     34 F          19.1530   41.6247   36.3049 F       1  UNL1       -0.2042
@<TRIPOS>BOND
     1    11    12    1
     2    12    10    1
     3    10     8    1
     4     8     9    2
     5     8     2    1
     6     2     7   ar
     7     2     3   ar
     8     3     4   ar
     9     4     5   ar
    10     4    13    1
    11     5     6   ar
    12     6     7   ar
    13     6     1    1
    14     1    18    1
    15    18    19    2
    16    18    20    1
    17    20    21    1
    18    21    22    1
    19    22    23    1
    20    23    27   ar
    21    23    24   ar
    22    24    25   ar
    23    25    26   ar
    24    25    28    1
    25    26    27   ar
    26    28    33   ar
    27    28    29   ar
    28    29    30   ar
    29    30    31   ar
    30    31    32   ar
    31    31    34    1
    32    32    33   ar
    33    13    14    2
    34    13    15    1
    35    15    16    1
    36    16    17    1
@<TRIPOS>MOLECULE
ZINC22145076
 34 36 0 0 0
SMALL
GASTEIGER

@<TRIPOS>ATOM
      1 N          15.2834   38.7045   28.9225 N.am    1  UNL1       -0.2757
      2 C          14.7361   37.5147   28.6042 C.2     1  UNL1        0.2711
      3 O          15.0010   36.5302   29.2610 O.2     1  UNL1       -0.2707
      4 H          15.0684   39.5036   28.3892 H       1  UNL1        0.1554
      5 C          16.9641   39.1838   32.2399 C.ar    1  UNL1       -0.0122
      6 C          18.1754   38.8521   31.7588 C.ar    1  UNL1        0.0051
      7 S          17.8529   38.4986   30.0435 S.2     1  UNL1       -0.0767
      8 C          16.1488   38.8029   30.0007 C.ar    1  UNL1        0.0864
      9 C          15.8580   39.1645   31.3120 C.ar    1  UNL1        0.0915
     10 C          19.4886   38.7895   32.4952 C.3     1  UNL1        0.0379
     11 C          14.4975   39.5079   31.7307 C.2     1  UNL1        0.3426
     12 O          14.2471   40.6321   32.1220 O.2     1  UNL1       -0.2448
     13 O          13.5219   38.5777   31.6822 O.3     1  UNL1       -0.4454
     14 C          12.1590   39.0586   31.5427 C.3     1  UNL1        0.2089
     15 C          11.2472   37.8977   31.1406 C.3     1  UNL1        0.0513
     16 C          16.7696   39.5603   33.6861 C.3     1  UNL1        0.0268
     17 C          17.1828   41.0188   33.8935 C.3     1  UNL1        0.0044
     18 C          15.9763   41.8272   34.3747 C.3     1  UNL1        0.0003
     19 C          19.4687   41.8987   34.3860 C.3     1  UNL1        0.0000
     20 C          18.2951   41.0896   34.9417 C.3     1  UNL1        0.0003
     21 C          13.7999   37.4064   27.4281 C.3     1  UNL1        0.2931
     22 O          12.4557   37.1316   27.9033 O.3     1  UNL1       -0.4331
     23 C          11.5124   36.9012   26.9700 C.2     1  UNL1        0.3799
     24 O          10.8563   35.8800   27.0090 O.2     1  UNL1       -0.2413
     25 C          11.2755   37.8926   25.8966 C.ar    1  UNL1        0.2609
     26 N          11.4170   37.6632   24.5890 N.ar    1  UNL1       -0.1834
     27 C          11.1238   38.7608   23.9076 C.ar    1  UNL1        0.2544
     28 N          11.1134   39.0328   22.5956 N.ar    1  UNL1       -0.2084
     29 C          10.7844   40.2254   22.1574 C.ar    1  UNL1        0.1033
     30 C          10.4374   41.2408   23.0594 C.ar    1  UNL1        0.0356
     31 C          10.4449   40.9771   24.3903 C.ar    1  UNL1        0.0655
     32 N          10.7901   39.7300   24.8148 N.ar    1  UNL1       -0.1989
     33 N          10.8966   39.1434   26.0826 N.ar    1  UNL1       -0.1365
     34 C          10.0760   42.0482   25.3841 C.3     1  UNL1        0.0523
@<TRIPOS>BOND
     1    19    20    1
     2    20    17    1
     3    17    18    1
     4    17    16    1
     5    16     5    1
     6     5     9   ar
     7     5     6   ar
     8     6     7   ar
     9     6    10    1
    10     7     8   ar
    11     8     9   ar
    12     8     1    1
    13     9    11    1
    14    11    12    2
    15    11    13    1
    16    13    14    1
    17    14    15    1
    18     1     2   am
    19     2     3    2
    20     2    21    1
    21    21    22    1
    22    22    23    1
    23    23    24    2
    24    23    25    1
    25    25    33   ar
    26    25    26   ar
    27    26    27   ar
    28    27    32   ar
    29    27    28   ar
    30    28    29   ar
    31    29    30   ar
    32    30    31   ar
    33    31    32   ar
    34    31    34    1
    35    32    33   ar
    36     1     4    1
@<TRIPOS>MOLECULE
ZINC21446633
 30 33 0 0 0
SMALL
GASTEIGER

@<TRIPOS>ATOM
      1 C          14.0003   37.5436   28.0664 C.3     1  UNL1        0.1496
      2 C          16.3437   38.6546   30.5554 C.ar    1  UNL1        0.2062
      3 N          16.0916   38.0650   29.3645 N.ar    1  UNL1       -0.1899
      4 C          14.7889   38.0858   29.2305 C.ar    1  UNL1        0.2479
      5 O          14.2907   38.6828   30.3177 O.2     1  UNL1       -0.3361
      6 N          15.1904   39.0023   31.0656 N.ar    1  UNL1       -0.0559
      7 C          17.7845   39.2231   32.5144 C.ar    1  UNL1        0.1415
      8 C          19.0361   39.4191   33.0774 C.ar    1  UNL1        0.0370
      9 C          20.1726   39.2725   32.3060 C.ar    1  UNL1        0.0031
     10 C          20.0698   38.9299   30.9688 C.ar    1  UNL1        0.0003
     11 C          18.8307   38.7319   30.3954 C.ar    1  UNL1        0.0062
     12 C          17.6779   38.8719   31.1653 C.ar    1  UNL1        0.0730
     13 O          16.6665   39.3661   33.2719 O.3     1  UNL1       -0.4754
     14 C          15.9880   41.6791   33.0990 C.3     1  UNL1        0.0512
     15 C          16.5358   40.5809   34.0128 C.3     1  UNL1        0.2055
     16 S          12.2353   37.5763   28.4658 S.3     1  UNL1       -0.1077
     17 C          11.5533   37.3420   26.8582 C.ar    1  UNL1        0.0085
     18 N          11.0973   38.3182   26.0195 N.ar    1  UNL1       -0.2453
     19 C          10.6658   37.6692   24.8957 C.ar    1  UNL1        0.1632
     20 N          10.8562   36.3944   25.0866 N.ar    1  UNL1       -0.3489
     21 N          11.3876   36.1956   26.2400 N.ar    1  UNL1       -0.5547
     22 C          10.0787   38.3098   23.6643 C.3     1  UNL1        0.2685
     23 O          11.1244   38.9022   22.8912 O.3     1  UNL1       -0.4673
     24 C          10.9259   40.1752   22.4579 C.ar    1  UNL1        0.1393
     25 C          10.3914   41.1255   23.3155 C.ar    1  UNL1        0.0378
     26 C          10.1949   42.4199   22.8747 C.ar    1  UNL1        0.0145
     27 C          10.5212   42.7661   21.5755 C.ar    1  UNL1        0.0579
     28 C          11.0497   41.8185   20.7169 C.ar    1  UNL1        0.0145
     29 C          11.2526   40.5243   21.1556 C.ar    1  UNL1        0.0378
     30 CL         10.2678   44.3919   21.0220 Cl      1  UNL1       -0.0822
@<TRIPOS>UNITY_ATOM_ATTR
21 1
charge -1
@<TRIPOS>BOND
     1    14    15    1
     2    15    13    1
     3    13     7    1
     4     7    12   ar
     5     7     8   ar
     6     8     9   ar
     7     9    10   ar
     8    10    11   ar
     9    11    12   ar
    10    12     2    1
    11     2     6   ar
    12     2     3   ar
    13     3     4   ar
    14     4     5   ar
    15     4     1    1
    16     5     6   ar
    17     1    16    1
    18    16    17    1
    19    17    18   ar
    20    17    21   ar
    21    18    19   ar
    22    19    22    1
    23    19    20   ar
    24    20    21   ar
    25    22    23    1
    26    23    24    1
    27    24    29   ar
    28    24    25   ar
    29    25    26   ar
    30    26    27   ar
    31    27    28   ar
    32    27    30    1
    33    28    29   ar
@<TRIPOS>MOLECULE
ZINC11925715
 31 33 0 0 0
SMALL
GASTEIGER

@<TRIPOS>ATOM
      1 S          21.7499   38.3790   28.0451 S.O2    1  UNL1       -0.0551
      2 O          22.2084   37.6380   29.1676 O.2     1  UNL1       -0.1841
      3 O          21.5572   37.7862   26.7681 O.2     1  UNL1       -0.1841
      4 C          22.8877   39.7050   27.8182 C.ar    1  UNL1        0.1231
      5 C          22.6118   41.0228   27.9536 C.ar    1  UNL1        0.1130
      6 N          23.7451   41.7089   27.6965 N.ar    1  UNL1       -0.2504
      7 N          24.7506   40.7821   27.3931 N.ar    1  UNL1       -0.1724
      8 C          24.2373   39.5813   27.4721 C.ar    1  UNL1        0.0950
      9 C          23.8969   43.1656   27.7294 C.3     1  UNL1        0.1053
     10 C          25.3706   43.5490   27.4823 C.3     1  UNL1        0.0244
     11 C          25.6069   44.7658   28.4124 C.3     1  UNL1        0.0021
     12 C          24.7935   44.3935   29.6768 C.3     1  UNL1        0.0021
     13 C          23.5298   43.7025   29.1239 C.3     1  UNL1        0.0244
     14 C          24.9720   38.2883   27.2282 C.3     1  UNL1        0.0384
     15 C          24.9042   37.4183   28.4849 C.3     1  UNL1        0.0060
     16 C          24.3232   37.5459   26.0584 C.3     1  UNL1        0.0060
     17 C          26.4346   38.5881   26.8938 C.3     1  UNL1        0.0060
     18 N          20.2988   39.0479   28.4802 N.pl3   1  UNL1       -0.5357
     19 C          19.1693   39.1402   32.4794 C.ar    1  UNL1        0.0755
     20 C          20.4085   39.6581   32.0890 C.ar    1  UNL1        0.0046
     21 C          20.7803   39.6209   30.7697 C.ar    1  UNL1       -0.0236
     22 C          19.9210   39.0791   29.8176 C.ar    1  UNL1       -0.1123
     23 C          18.6843   38.5679   30.2020 C.ar    1  UNL1       -0.0236
     24 C          18.3087   38.5966   31.5205 C.ar    1  UNL1        0.0046
     25 C          18.7690   39.1728   33.8974 C.2     1  UNL1        0.3412
     26 O          19.5475   38.8099   34.7569 O.2     1  UNL1       -0.2449
     27 O          17.5417   39.6103   34.2412 O.3     1  UNL1       -0.4454
     28 C          17.3120   41.0429   34.1822 C.3     1  UNL1        0.2088
     29 C          15.8439   41.3105   33.8448 C.3     1  UNL1        0.0475
     30 C          14.7401   39.7451   32.2403 C.3     1  UNL1        0.0001
     31 C          15.5970   41.0066   32.3657 C.3     1  UNL1        0.0038
@<TRIPOS>UNITY_ATOM_ATTR
18 1
charge -1
@<TRIPOS>BOND
     1    30    31    1
     2    31    29    1
     3    29    28    1
     4    28    27    1
     5    27    25    1
     6    25    26    2
     7    25    19    1
     8    19    24   ar
     9    19    20   ar
    10    20    21   ar
    11    21    22   ar
    12    22    23   ar
    13    22    18    1
    14    23    24   ar
    15    18     1    1
    16     1     2    2
    17     1     3    2
    18     1     4    1
    19     4     8   ar
    20     4     5   ar
    21     5     6   ar
    22     6     7   ar
    23     6     9    1
    24     7     8   ar
    25     8    14    1
    26    14    15    1
    27    14    16    1
    28    14    17    1
    29     9    13    1
    30     9    10    1
    31    10    11    1
    32    11    12    1
    33    12    13    1
@<TRIPOS>MOLECULE
ZINC14045490
 33 36 0 0 0
SMALL
GASTEIGER

@<TRIPOS>ATOM
      1 N          25.7023   40.0827   28.8009 N.ar    1  UNL1       -0.2449
      2 C          24.4730   39.6432   28.4880 C.ar    1  UNL1        0.0969
      3 C          24.2487   38.4753   29.1931 C.ar    1  UNL1        0.0384
      4 C          25.4629   38.2286   29.9793 C.ar    1  UNL1        0.1038
      5 N          26.2993   39.2050   29.7101 N.ar    1  UNL1       -0.1689
      6 C          25.7022   37.0904   30.8987 C.ar    1  UNL1        0.0386
      7 C          24.8028   36.8104   31.9321 C.ar    1  UNL1        0.0047
      8 C          25.0712   35.7366   32.7629 C.ar    1  UNL1        0.0207
      9 C          26.2101   34.9818   32.5465 C.ar    1  UNL1        0.0989
     10 N          27.0405   35.2701   31.5632 N.ar    1  UNL1       -0.2423
     11 C          26.8244   36.2786   30.7437 C.ar    1  UNL1        0.1004
     12 C          23.0374   37.6475   29.1620 C.2     1  UNL1        0.0097
     13 C          21.8469   38.2029   28.8400 C.2     1  UNL1        0.0820
     14 C          20.6786   37.4046   28.8099 C.2     1  UNL1        0.3417
     15 O          20.5765   36.5062   27.9956 O.2     1  UNL1       -0.2449
     16 O          19.6779   37.6396   29.6843 O.3     1  UNL1       -0.4404
     17 C          19.9541   38.5388   30.7600 C.3     1  UNL1        0.2354
     18 C          18.6711   38.8758   31.4751 C.ar    1  UNL1        0.0229
     19 C          18.6992   39.2509   32.8055 C.ar    1  UNL1       -0.0006
     20 C          17.5229   39.5638   33.4603 C.ar    1  UNL1        0.0015
     21 C          16.3172   39.4933   32.7872 C.ar    1  UNL1        0.0241
     22 C          16.2887   39.1136   31.4586 C.ar    1  UNL1        0.1427
     23 C          17.4657   38.8044   30.8025 C.ar    1  UNL1        0.0234
     24 N          14.9979   39.0377   30.7381 N.pl3   1  UNL1        0.0577
     25 O          13.9594   39.2941   31.3205 O.2     1  UNL1       -0.1261
     26 O          14.9743   38.7188   29.5628 O.2     1  UNL1       -0.1261
     27 C          26.3260   41.2954   28.2655 C.3     1  UNL1        0.1538
     28 C          23.6992   44.6159   28.8327 C.ar    1  UNL1       -0.0000
     29 C          24.8728   44.5313   29.5581 C.ar    1  UNL1       -0.0003
     30 C          25.7254   43.4594   29.3709 C.ar    1  UNL1       -0.0023
     31 C          25.3995   42.4670   28.4655 C.ar    1  UNL1        0.0021
     32 C          24.2239   42.5495   27.7429 C.ar    1  UNL1       -0.0023
     33 C          23.3737   43.6239   27.9266 C.ar    1  UNL1       -0.0003
@<TRIPOS>BOND
     1    28    33   ar
     2    28    29   ar
     3    29    30   ar
     4    30    31   ar
     5    31    32   ar
     6    31    27    1
     7    32    33   ar
     8    27     1    1
     9     1     5   ar
    10     1     2   ar
    11     2     3   ar
    12     3     4   ar
    13     3    12    1
    14     4     5   ar
    15     4     6    1
    16     6    11   ar
    17     6     7   ar
    18     7     8   ar
    19     8     9   ar
    20     9    10   ar
    21    10    11   ar
    22    12    13    2
    23    13    14    1
    24    14    15    2
    25    14    16    1
    26    16    17    1
    27    17    18    1
    28    18    23   ar
    29    18    19   ar
    30    19    20   ar
    31    20    21   ar
    32    21    22   ar
    33    22    23   ar
    34    22    24    1
    35    24    25    2
    36    24    26    2
@<TRIPOS>MOLECULE
ZINC26120255
 31 34 0 0 0
SMALL
GASTEIGER

@<TRIPOS>ATOM
      1 C          23.8936   37.9395   28.9933 C.2     1  UNL1        0.0250
      2 O          23.3833   37.2772   29.8647 O.2     1  UNL1       -0.3314
      3 C          25.3771   38.2032   29.0181 C.2     1  UNL1       -0.1026
      4 C          26.8976   34.8140   29.4494 C.ar    1  UNL1        0.0848
      5 C          27.4636   35.0295   30.6771 C.ar    1  UNL1        0.0529
      6 S          26.9737   36.7222   30.9725 S.2     1  UNL1       -0.1045
      7 C          26.0988   36.9685   29.4933 C.ar    1  UNL1       -0.0494
      8 N          26.2198   35.8078   28.8967 N.ar    1  UNL1       -0.2761
      9 C          27.2886   31.0653   27.4809 C.ar    1  UNL1        0.0000
     10 C          27.2623   31.1185   28.8630 C.ar    1  UNL1        0.0000
     11 C          27.1356   32.3324   29.5072 C.ar    1  UNL1        0.0015
     12 C          27.0346   33.5062   28.7626 C.ar    1  UNL1        0.0181
     13 C          27.0568   33.4462   27.3704 C.ar    1  UNL1        0.0015
     14 C          27.1891   32.2272   26.7369 C.ar    1  UNL1        0.0000
     15 C          25.8367   38.5493   27.6633 C.1     1  UNL1       -0.1066
     16 N          26.1914   38.8164   26.6176 N.1     1  UNL1       -0.2342
     17 C          23.0467   38.5023   27.8809 C.3     1  UNL1        0.0939
     18 S          22.2981   40.0592   28.4213 S.3     1  UNL1       -0.0713
     19 C          20.8657   39.4416   29.2408 C.ar    1  UNL1        0.1853
     20 N          20.7053   39.2845   30.5875 N.ar    1  UNL1       -0.2050
     21 C          19.4462   38.7774   30.7540 C.ar    1  UNL1        0.1606
     22 N          18.9188   38.6522   29.5691 N.ar    1  UNL1       -0.1561
     23 N          19.7508   39.0456   28.6719 N.ar    1  UNL1       -0.2535
     24 H          19.5778   39.0493   27.7027 H       1  UNL1        0.1911
     25 C          18.7901   38.4282   32.0650 C.3     1  UNL1        0.0676
     26 C          18.0151   39.6399   32.5862 C.3     1  UNL1        0.0080
     27 C          18.2826   39.8111   34.0830 C.3     1  UNL1        0.0004
     28 C          18.4025   41.3093   34.4303 C.3     1  UNL1        0.0000
     29 C          19.5128   41.3613   35.5092 C.3     1  UNL1        0.0000
     30 C          20.5191   40.2922   35.0158 C.3     1  UNL1        0.0000
     31 C          19.6284   39.1644   34.4551 C.3     1  UNL1        0.0000
@<TRIPOS>UNITY_ATOM_ATTR
3 1
charge -1
@<TRIPOS>BOND
     1     9    14   ar
     2     9    10   ar
     3    10    11   ar
     4    11    12   ar
     5    12    13   ar
     6    12     4    1
     7    13    14   ar
     8     4     8   ar
     9     4     5   ar
    10     5     6   ar
    11     6     7   ar
    12     7     8   ar
    13     7     3    1
    14     3    15    1
    15     3     1    1
    16    15    16    3
    17     1     2    2
    18     1    17    1
    19    17    18    1
    20    18    19    1
    21    19    20   ar
    22    19    23   ar
    23    20    21   ar
    24    21    25    1
    25    21    22   ar
    26    22    23   ar
    27    25    26    1
    28    26    27    1
    29    27    31    1
    30    27    28    1
    31    28    29    1
    32    29    30    1
    33    30    31    1
    34    23    24    1
@<TRIPOS>MOLECULE
ZINC01898172
 32 35 0 0 0
SMALL
GASTEIGER

@<TRIPOS>ATOM
      1 S          25.3692   40.9293   28.0379 S.3     1  UNL1       -0.0409
      2 C          26.9216   37.5080   29.0070 C.ar    1  UNL1        0.2504
      3 N          27.9449   38.3171   29.1476 N.ar    1  UNL1       -0.1065
      4 N          27.5854   39.5163   28.8509 N.ar    1  UNL1       -0.1006
      5 C          26.3146   39.5221   28.5181 C.ar    1  UNL1        0.2792
      6 O          25.8683   38.2545   28.6055 O.2     1  UNL1       -0.4109
      7 C          27.0426   33.3411   26.0515 C.ar    1  UNL1        0.0000
      8 C          27.0438   34.7119   25.8037 C.ar    1  UNL1        0.0000
      9 C          27.0038   35.6089   26.8286 C.ar    1  UNL1        0.0002
     10 C          26.9554   35.1495   28.1516 C.ar    1  UNL1        0.0046
     11 C          26.9599   33.7564   28.4059 C.ar    1  UNL1        0.0001
     12 C          27.0015   32.8597   27.3241 C.ar    1  UNL1        0.0000
     13 C          26.9171   33.2942   29.7327 C.ar    1  UNL1        0.0000
     14 C          26.8778   34.1824   30.7657 C.ar    1  UNL1        0.0002
     15 C          26.8795   35.5524   30.5365 C.ar    1  UNL1        0.0047
     16 C          26.9205   36.0531   29.2433 C.ar    1  UNL1        0.0551
     17 C          24.7719   40.3706   26.4232 C.3     1  UNL1        0.1423
     18 C          23.6094   39.4870   26.6089 C.1     1  UNL1       -0.0750
     19 C          22.6823   38.7823   26.7569 C.1     1  UNL1       -0.0429
     20 C          21.5197   37.8986   26.9427 C.3     1  UNL1        0.2845
     21 O          20.6217   38.4800   27.9244 O.3     1  UNL1       -0.4307
     22 C          20.3748   37.7549   29.0325 C.2     1  UNL1        0.3422
     23 O          20.4719   36.5446   29.0005 O.2     1  UNL1       -0.2449
     24 C          19.9858   38.4319   30.2867 C.ar    1  UNL1        0.0758
     25 C          18.6606   38.3900   30.7243 C.ar    1  UNL1        0.0081
     26 C          18.3044   39.0238   31.8966 C.ar    1  UNL1        0.0243
     27 C          19.2569   39.7000   32.6382 C.ar    1  UNL1        0.1429
     28 C          20.5719   39.7455   32.2103 C.ar    1  UNL1        0.0243
     29 C          20.9419   39.1160   31.0400 C.ar    1  UNL1        0.0081
     30 N          18.8672   40.3782   33.8948 N.pl3   1  UNL1        0.0577
     31 O          18.9377   39.7831   34.9552 O.2     1  UNL1       -0.1261
     32 O          18.4763   41.5315   33.8685 O.2     1  UNL1       -0.1261
@<TRIPOS>BOND
     1     7    12   ar
     2     7     8   ar
     3     8     9   ar
     4     9    10   ar
     5    10    16   ar
     6    10    11   ar
     7    11    12   ar
     8    11    13   ar
     9    13    14   ar
    10    14    15   ar
    11    15    16   ar
    12    16     2    1
    13     2     6   ar
    14     2     3   ar
    15     3     4   ar
    16     4     5   ar
    17     5     6   ar
    18     5     1    1
    19     1    17    1
    20    17    18    1
    21    18    19    3
    22    19    20    1
    23    20    21    1
    24    21    22    1
    25    22    23    2
    26    22    24    1
    27    24    29   ar
    28    24    25   ar
    29    25    26   ar
    30    26    27   ar
    31    27    28   ar
    32    27    30    1
    33    28    29   ar
    34    30    31    2
    35    30    32    2
@<TRIPOS>MOLECULE
ZINC08821670
 32 34 0 0 0
SMALL
GASTEIGER

@<TRIPOS>ATOM
      1 N          15.8723   39.1036   32.9747 N.2     1  UNL1       -0.2034
      2 C          16.9188   39.0470   32.2036 C.2     1  UNL1        0.3161
      3 N          18.2417   39.2551   32.5408 N.am    1  UNL1       -0.1967
      4 C          19.1734   39.1513   31.6062 C.2     1  UNL1        0.2636
      5 O          20.3492   39.3256   31.8540 O.2     1  UNL1       -0.2688
      6 C          18.7027   38.8095   30.2324 C.2     1  UNL1        0.0932
      7 C          19.4548   38.6365   29.0570 C.2     1  UNL1        0.0488
      8 S          16.9863   38.6879   30.4581 S.3     1  UNL1        0.0023
      9 H          15.9757   39.3179   33.9300 H       1  UNL1        0.4486
     10 C          20.8070   38.9350   29.0501 C.ar    1  UNL1        0.1460
     11 C          21.4038   40.2643   28.8799 C.ar    1  UNL1        0.0406
     12 C          22.7515   40.0887   28.9453 C.ar    1  UNL1        0.0407
     13 C          22.9928   38.7127   29.1374 C.ar    1  UNL1        0.1469
     14 O          21.8229   38.0557   29.1990 O.2     1  UNL1       -0.4534
     15 C          24.3144   38.0961   29.2574 C.ar    1  UNL1        0.0570
     16 C          24.8001   37.7023   30.5169 C.ar    1  UNL1        0.0044
     17 C          26.0419   37.1182   30.6180 C.ar    1  UNL1       -0.0041
     18 C          26.8134   36.9169   29.4833 C.ar    1  UNL1       -0.0202
     19 C          26.3440   37.3015   28.2368 C.ar    1  UNL1        0.0199
     20 C          25.1047   37.8879   28.1137 C.ar    1  UNL1        0.1455
     21 C          28.1715   36.2754   29.6060 C.3     1  UNL1        0.0311
     22 N          24.6057   38.2972   26.7815 N.pl3   1  UNL1        0.0578
     23 O          24.9513   39.4645   26.2789 O.2     1  UNL1       -0.1261
     24 O          23.8162   37.4940   26.0988 O.2     1  UNL1       -0.1261
     25 C          14.5401   38.8485   32.4213 C.3     1  UNL1        0.3157
     26 C          13.9118   40.1700   31.9745 C.3     1  UNL1        0.0847
     27 C          12.2014   38.4292   31.4391 C.3     1  UNL1        0.0002
     28 C          12.4547   39.9321   31.5732 C.3     1  UNL1        0.0072
     29 C          18.6102   39.5879   33.9190 C.3     1  UNL1        0.1046
     30 C          18.5543   41.1049   34.1098 C.3     1  UNL1        0.0221
     31 C          19.6273   41.5326   35.1131 C.3     1  UNL1        0.0018
     32 C          20.6829   40.4314   35.2313 C.3     1  UNL1        0.0001
@<TRIPOS>UNITY_ATOM_ATTR
1 1
charge 1
@<TRIPOS>BOND
     1    27    28    1
     2    28    26    1
     3    26    25    1
     4    25     1    1
     5     1     2    2
     6     2     8    1
     7     2     3    1
     8     3     4   am
     9     3    29    1
    10     4     5    2
    11     4     6    1
    12     6     7    2
    13     6     8    1
    14     7    10    1
    15    10    14   ar
    16    10    11   ar
    17    11    12   ar
    18    12    13   ar
    19    13    14   ar
    20    13    15    1
    21    15    20   ar
    22    15    16   ar
    23    16    17   ar
    24    17    18   ar
    25    18    19   ar
    26    18    21    1
    27    19    20   ar
    28    20    22    1
    29    22    23    2
    30    22    24    2
    31    29    30    1
    32    30    31    1
    33    31    32    1
    34     1     9    1
@<TRIPOS>MOLECULE
ZINC24616559
 31 32 0 0 0
SMALL
GASTEIGER

@<TRIPOS>ATOM
      1 C          10.6448   39.8300   23.4394 C.ar    1  UNL1        0.1632
      2 C          10.8711   39.4798   24.7677 C.ar    1  UNL1        0.1908
      3 C          10.9330   38.1390   25.1107 C.ar    1  UNL1        0.1671
      4 C          10.7553   37.1904   24.1112 C.ar    1  UNL1        0.2050
      5 C          10.5288   37.6106   22.8111 C.ar    1  UNL1        0.2524
      6 N          10.4803   38.8975   22.5144 N.ar    1  UNL1       -0.1987
      7 F          10.3556   36.6936   21.8341 F       1  UNL1       -0.1807
      8 F          10.8027   35.8725   24.4045 F       1  UNL1       -0.1987
      9 F          11.0327   40.4352   25.7092 F       1  UNL1       -0.1998
     10 S          11.2230   37.6479   26.7778 S.O2    1  UNL1        0.0191
     11 O          10.7996   36.2927   26.8354 O.2     1  UNL1       -0.1683
     12 O          10.5813   38.6416   27.5653 O.2     1  UNL1       -0.1683
     13 C          13.0219   37.7500   26.9875 C.3     1  UNL1        0.2165
     14 C          13.4117   37.1581   28.3435 C.3     1  UNL1        0.1313
     15 N          13.2459   38.1772   29.3884 N.4     1  UNL1        0.2730
     16 C          12.0715   37.8898   30.2220 C.3     1  UNL1        0.1051
     17 C          11.8457   39.0431   31.2024 C.3     1  UNL1        0.0611
     18 C          13.0891   39.2115   32.0800 C.3     1  UNL1        0.0120
     19 C          14.3070   39.4607   31.1860 C.3     1  UNL1        0.0552
     20 C          14.4605   38.2961   30.2051 C.3     1  UNL1        0.0555
     21 C          15.6637   38.5513   29.2950 C.3     1  UNL1        0.0609
     22 H          13.0900   39.0751   28.9304 H       1  UNL1        0.2065
     23 N          10.5852   41.1747   23.0813 N.pl3   1  UNL1       -0.2914
     24 C           9.5396   41.8754   23.8389 C.3     1  UNL1        0.0922
     25 C           8.8216   42.8662   22.9204 C.3     1  UNL1        0.0215
     26 C           6.4384   43.6148   22.9686 C.3     1  UNL1        0.0001
     27 C           7.7696   43.6350   23.7224 C.3     1  UNL1        0.0018
     28 C          11.8901   41.8253   23.2597 C.3     1  UNL1        0.0922
     29 C          12.5617   42.0034   21.8966 C.3     1  UNL1        0.0215
     30 C          12.0948   43.3169   21.2658 C.3     1  UNL1        0.0018
     31 C          11.1770   43.0151   20.0795 C.3     1  UNL1        0.0001
@<TRIPOS>UNITY_ATOM_ATTR
15 1
charge 1
@<TRIPOS>BOND
     1    26    27    1
     2    27    25    1
     3    25    24    1
     4    24    23    1
     5    23    28    1
     6    23     1    1
     7    28    29    1
     8    29    30    1
     9    30    31    1
    10     1     6   ar
    11     1     2   ar
    12     2     3   ar
    13     2     9    1
    14     3     4   ar
    15     3    10    1
    16     4     5   ar
    17     4     8    1
    18     5     6   ar
    19     5     7    1
    20    10    11    2
    21    10    12    2
    22    10    13    1
    23    13    14    1
    24    14    15    1
    25    15    20    1
    26    15    16    1
    27    16    17    1
    28    17    18    1
    29    18    19    1
    30    19    20    1
    31    20    21    1
    32    15    22    1
@<TRIPOS>MOLECULE
ZINC02560008
 33 36 0 0 0
SMALL
GASTEIGER

@<TRIPOS>ATOM
      1 N          22.1436   38.3822   28.2867 N.am    1  UNL1       -0.2386
      2 C          23.0817   37.6796   29.1657 C.3     1  UNL1        0.1187
      3 C          20.8923   38.6477   28.7112 C.2     1  UNL1        0.4052
      4 O          20.1142   39.2305   27.9822 O.2     1  UNL1       -0.2262
      5 C          22.5657   38.7963   26.9463 C.3     1  UNL1        0.1420
      6 C          22.7282   37.5794   26.0725 C.2     1  UNL1        0.0709
      7 O          21.7538   37.0242   25.6226 O.co2   1  UNL1       -0.5474
      8 O          23.9553   37.1122   25.7938 O.co2   1  UNL1       -0.5474
      9 C          24.2091   40.2015   25.6945 C.3     1  UNL1        0.0342
     10 C          23.8998   39.5396   27.0387 C.3     1  UNL1        0.1392
     11 O          23.8179   40.5408   28.0551 O.3     1  UNL1       -0.3494
     12 C          25.0855   41.0566   28.4665 C.3     1  UNL1        0.1686
     13 C          25.0078   42.5582   28.5682 C.ar    1  UNL1        0.0073
     14 C          26.1640   43.3145   28.5248 C.ar    1  UNL1       -0.0019
     15 C          26.0923   44.6923   28.6128 C.ar    1  UNL1       -0.0002
     16 C          24.8653   45.3128   28.7553 C.ar    1  UNL1       -0.0000
     17 C          23.7096   44.5560   28.8044 C.ar    1  UNL1       -0.0002
     18 C          23.7808   43.1787   28.7106 C.ar    1  UNL1       -0.0019
     19 O          20.5043   38.2671   29.9430 O.3     1  UNL1       -0.4338
     20 C          20.2804   39.3194   30.9182 C.3     1  UNL1        0.2187
     21 C          19.3462   38.8070   32.0160 C.3     1  UNL1        0.0884
     22 C          19.5603   39.5904   33.2878 C.ar    1  UNL1       -0.0148
     23 C          20.6636   39.7576   34.0975 C.ar    1  UNL1       -0.0038
     24 C          20.5803   40.5531   35.2266 C.ar    1  UNL1       -0.0003
     25 C          19.3876   41.1742   35.5508 C.ar    1  UNL1       -0.0000
     26 C          18.2787   41.0129   34.7463 C.ar    1  UNL1       -0.0003
     27 C          18.3569   40.2157   33.6029 C.ar    1  UNL1       -0.0038
     28 C          17.3396   39.8745   32.5778 C.ar    1  UNL1       -0.0038
     29 C          17.9074   39.0358   31.6225 C.ar    1  UNL1       -0.0148
     30 C          17.1542   38.5801   30.5614 C.ar    1  UNL1       -0.0038
     31 C          15.8277   38.9553   30.4417 C.ar    1  UNL1       -0.0003
     32 C          15.2547   39.7882   31.3858 C.ar    1  UNL1       -0.0000
     33 C          16.0008   40.2486   32.4509 C.ar    1  UNL1       -0.0003
@<TRIPOS>UNITY_ATOM_ATTR
8 1
charge -1
@<TRIPOS>BOND
     1     9    10    1
     2    10     5    1
     3    10    11    1
     4     5     6    1
     5     5     1    1
     6     6     7   ar
     7     6     8   ar
     8     1     2    1
     9     1     3   am
    10     3     4    2
    11     3    19    1
    12    19    20    1
    13    20    21    1
    14    21    29    1
    15    21    22    1
    16    22    27   ar
    17    22    23   ar
    18    23    24   ar
    19    24    25   ar
    20    25    26   ar
    21    26    27   ar
    22    27    28    1
    23    28    33   ar
    24    28    29   ar
    25    29    30   ar
    26    30    31   ar
    27    31    32   ar
    28    32    33   ar
    29    11    12    1
    30    12    13    1
    31    13    18   ar
    32    13    14   ar
    33    14    15   ar
    34    15    16   ar
    35    16    17   ar
    36    17    18   ar
@<TRIPOS>MOLECULE
ZINC08647900
 31 33 0 0 0
SMALL
GASTEIGER

@<TRIPOS>ATOM
      1 C          18.3134   40.5197   33.5026 C.ar    1  UNL1        0.0085
      2 C          19.3307   39.5724   33.3749 C.ar    1  UNL1        0.1344
      3 C          20.3501   39.5495   34.3146 C.ar    1  UNL1        0.0381
      4 C          20.3168   40.4750   35.3499 C.ar    1  UNL1        0.0237
      5 C          19.2797   41.3827   35.4130 C.ar    1  UNL1        0.0969
      6 N          18.3184   41.3797   34.5077 N.ar    1  UNL1       -0.2644
      7 N          17.2821   40.5560   32.5679 N.pl3   1  UNL1       -0.5181
      8 S          15.7573   40.0740   32.9981 S.O2    1  UNL1       -0.0568
      9 O          15.9120   39.1138   34.0341 O.2     1  UNL1       -0.1841
     10 O          14.9893   41.2579   33.1653 O.2     1  UNL1       -0.1841
     11 C          13.9970   37.8795   29.4518 C.ar    1  UNL1       -0.0221
     12 C          13.2190   38.1263   30.5675 C.ar    1  UNL1       -0.0030
     13 C          13.7566   38.7966   31.6504 C.ar    1  UNL1        0.0166
     14 C          15.0721   39.2197   31.6178 C.ar    1  UNL1        0.0893
     15 C          15.8486   38.9775   30.5000 C.ar    1  UNL1        0.0166
     16 C          15.3123   38.3035   29.4188 C.ar    1  UNL1       -0.0030
     17 C          13.4113   37.1480   28.2717 C.3     1  UNL1        0.0264
     18 C          11.9201   37.4716   28.1597 C.3     1  UNL1        0.0047
     19 C          11.5830   37.8283   26.7106 C.3     1  UNL1        0.0003
     20 C           9.8302   37.2175   25.0381 C.3     1  UNL1        0.0000
     21 C          10.8245   36.6680   26.0631 C.3     1  UNL1        0.0000
     22 O          19.3219   38.6848   32.3444 O.3     1  UNL1       -0.4710
     23 C          19.4657   39.2190   31.0268 C.3     1  UNL1        0.2321
     24 C          20.6633   38.5937   30.3592 C.ar    1  UNL1        0.0256
     25 C          21.8713   38.5293   31.0276 C.ar    1  UNL1        0.0291
     26 C          22.9709   37.9499   30.4171 C.ar    1  UNL1        0.1422
     27 C          22.8629   37.4451   29.1329 C.ar    1  UNL1        0.0592
     28 C          21.6540   37.5151   28.4622 C.ar    1  UNL1        0.1422
     29 C          20.5542   38.0900   29.0767 C.ar    1  UNL1        0.0291
     30 F          21.5470   37.0224   27.2088 F       1  UNL1       -0.2041
     31 F          24.1503   37.8825   31.0727 F       1  UNL1       -0.2041
@<TRIPOS>UNITY_ATOM_ATTR
7 1
charge -1
@<TRIPOS>BOND
     1    20    21    1
     2    21    19    1
     3    19    18    1
     4    18    17    1
     5    17    11    1
     6    11    16   ar
     7    11    12   ar
     8    12    13   ar
     9    13    14   ar
    10    14    15   ar
    11    14     8    1
    12    15    16   ar
    13     8     9    2
    14     8    10    2
    15     8     7    1
    16     7     1    1
    17     1     6   ar
    18     1     2   ar
    19     2     3   ar
    20     2    22    1
    21     3     4   ar
    22     4     5   ar
    23     5     6   ar
    24    22    23    1
    25    23    24    1
    26    24    29   ar
    27    24    25   ar
    28    25    26   ar
    29    26    27   ar
    30    26    31    1
    31    27    28   ar
    32    28    29   ar
    33    28    30    1
@<TRIPOS>MOLECULE
ZINC29526167
 31 33 0 0 0
SMALL
GASTEIGER

@<TRIPOS>ATOM
      1 C          24.2561   38.1020   29.4152 C.ar    1  UNL1        0.1885
      2 N          24.1339   37.7599   30.6666 N.ar    1  UNL1       -0.1290
      3 N          22.9211   37.9338   31.0550 N.ar    1  UNL1       -0.1223
      4 C          22.1991   38.4052   30.0651 C.ar    1  UNL1        0.1936
      5 N          23.0295   38.5304   28.9886 N.ar    1  UNL1       -0.2867
      6 C          25.5165   38.0398   28.5915 C.3     1  UNL1        0.2703
      7 O          26.4747   37.2080   29.2488 O.3     1  UNL1       -0.4676
      8 C          26.9524   34.3429   25.3265 C.3     1  UNL1        0.0311
      9 C          26.9187   34.5353   26.8208 C.ar    1  UNL1       -0.0189
     10 C          27.0968   33.4515   27.6611 C.ar    1  UNL1       -0.0044
     11 C          27.0660   33.6247   29.0323 C.ar    1  UNL1       -0.0016
     12 C          26.8636   34.8827   29.5666 C.ar    1  UNL1        0.0115
     13 C          26.6795   35.9705   28.7258 C.ar    1  UNL1        0.1348
     14 C          26.7105   35.7940   27.3499 C.ar    1  UNL1        0.0323
     15 C          26.8368   35.0718   31.0613 C.3     1  UNL1        0.0253
     16 C          25.5147   34.5410   31.6190 C.3     1  UNL1        0.0048
     17 C          28.0010   34.3061   31.6933 C.3     1  UNL1        0.0048
     18 C          22.6781   39.0166   27.6520 C.3     1  UNL1        0.1357
     19 C          22.2638   37.8540   26.7874 C.2     1  UNL1       -0.0017
     20 C          22.6996   37.7661   25.5551 C.2     1  UNL1       -0.0029
     21 S          20.4831   38.8023   30.1164 S.3     1  UNL1       -0.0708
     22 C          20.3086   39.2168   31.8696 C.3     1  UNL1        0.0930
     23 C          18.8460   39.2935   32.2245 C.ar    1  UNL1        0.0116
     24 C          17.8894   38.9249   31.2968 C.ar    1  UNL1       -0.0018
     25 C          16.5482   38.9907   31.6239 C.ar    1  UNL1       -0.0002
     26 C          16.1627   39.4351   32.8751 C.ar    1  UNL1        0.0017
     27 C          17.1188   39.8084   33.8006 C.ar    1  UNL1        0.0238
     28 C          18.4607   39.7377   33.4753 C.ar    1  UNL1        0.1397
     29 N          19.4847   40.1379   34.4663 N.pl3   1  UNL1        0.0574
     30 O          19.7972   41.3098   34.5797 O.2     1  UNL1       -0.1261
     31 O          20.0151   39.2956   35.1682 O.2     1  UNL1       -0.1261
@<TRIPOS>BOND
     1     8     9    1
     2     9    14   ar
     3     9    10   ar
     4    10    11   ar
     5    11    12   ar
     6    12    13   ar
     7    12    15    1
     8    13    14   ar
     9    13     7    1
    10     7     6    1
    11     6     1    1
    12     1     5   ar
    13     1     2   ar
    14     2     3   ar
    15     3     4   ar
    16     4     5   ar
    17     4    21    1
    18     5    18    1
    19    18    19    1
    20    19    20    2
    21    21    22    1
    22    22    23    1
    23    23    28   ar
    24    23    24   ar
    25    24    25   ar
    26    25    26   ar
    27    26    27   ar
    28    27    28   ar
    29    28    29    1
    30    29    30    2
    31    29    31    2
    32    15    16    1
    33    15    17    1
@<TRIPOS>MOLECULE
ZINC01886804
 31 33 0 0 0
SMALL
GASTEIGER

@<TRIPOS>ATOM
      1 C          18.5031   38.7811   31.0668 C.ar    1  UNL1        0.0121
      2 C          19.0136   38.8666   29.8027 C.ar    1  UNL1        0.0050
      3 C          20.3958   38.9016   29.6152 C.ar    1  UNL1        0.0735
      4 C          21.2651   38.8493   30.7194 C.ar    1  UNL1        0.1515
      5 C          20.7294   38.7625   31.9975 C.ar    1  UNL1        0.0741
      6 C          19.3556   38.7287   32.1673 C.ar    1  UNL1        0.1382
      7 O          22.5997   38.8836   30.5360 O.2     1  UNL1       -0.4500
      8 C          23.1725   38.9671   29.3317 C.ar    1  UNL1        0.1841
      9 C          22.4523   39.0247   28.1825 C.ar    1  UNL1        0.0947
     10 C          20.9823   38.9940   28.2662 C.ar    1  UNL1        0.2030
     11 O          20.2844   39.0432   27.2679 O.2     1  UNL1       -0.2863
     12 C          23.1332   39.1171   26.8672 C.ar    1  UNL1        0.0941
     13 C          23.1669   38.0482   26.0134 C.ar    1  UNL1        0.0558
     14 S          24.0890   38.7446   24.6504 S.2     1  UNL1       -0.0702
     15 C          24.3302   40.3271   25.3226 C.ar    1  UNL1        0.0886
     16 N          23.7221   40.2377   26.4809 N.ar    1  UNL1       -0.2425
     17 C          25.0511   41.5072   24.7236 C.3     1  UNL1        0.0594
     18 C          17.0106   38.7427   31.2717 C.3     1  UNL1        0.0294
     19 C          16.3084   38.7668   29.9126 C.3     1  UNL1        0.0048
     20 C          14.7961   38.6586   30.1179 C.3     1  UNL1        0.0003
     21 C          14.4478   39.0463   31.5564 C.3     1  UNL1        0.0000
     22 C          12.1480   38.1988   31.0717 C.3     1  UNL1        0.0000
     23 C          12.9539   39.3628   31.6518 C.3     1  UNL1        0.0000
     24 O          18.8346   38.6433   33.4180 O.3     1  UNL1       -0.4681
     25 C          19.5937   39.2277   34.4782 C.3     1  UNL1        0.2634
     26 C          19.4469   38.3756   35.7404 C.3     1  UNL1        0.0596
     27 C          19.0865   40.6205   34.7506 C.2     1  UNL1        0.3576
     28 O          19.4891   41.2329   35.7112 O.2     1  UNL1       -0.2461
     29 O          18.1875   41.1806   33.9261 O.3     1  UNL1       -0.4460
     30 C          16.7864   41.0202   34.2718 C.3     1  UNL1        0.2087
     31 C          15.9178   41.6847   33.2018 C.3     1  UNL1        0.0513
@<TRIPOS>BOND
     1    22    23    1
     2    23    21    1
     3    21    20    1
     4    20    19    1
     5    19    18    1
     6    18     1    1
     7     1     6   ar
     8     1     2   ar
     9     2     3   ar
    10     3    10   ar
    11     3     4   ar
    12     4     5   ar
    13     4     7   ar
    14     5     6   ar
    15     6    24    1
    16    24    25    1
    17    25    26    1
    18    25    27    1
    19    27    28    2
    20    27    29    1
    21    29    30    1
    22    30    31    1
    23     7     8   ar
    24     8     9   ar
    25     9    10   ar
    26     9    12    1
    27    10    11    2
    28    12    16   ar
    29    12    13   ar
    30    13    14   ar
    31    14    15   ar
    32    15    16   ar
    33    15    17    1
@<TRIPOS>MOLECULE
ZINC31183514
 33 36 0 0 0
SMALL
GASTEIGER

@<TRIPOS>ATOM
      1 O          24.7907   38.2372   26.5761 O.3     1  UNL1       -0.4457
      2 C          23.4666   38.0531   26.6970 C.2     1  UNL1        0.3166
      3 O          22.8641   37.4295   25.8556 O.2     1  UNL1       -0.2501
      4 N          20.5676   38.4353   29.7849 N.pl3   1  UNL1       -0.2781
      5 C          20.5234   39.4397   28.7146 C.3     1  UNL1        0.0942
      6 C          21.2804   38.9174   27.4914 C.3     1  UNL1        0.0327
      7 C          22.7315   38.6243   27.8821 C.3     1  UNL1        0.1025
      8 C          22.7494   37.6127   29.0314 C.3     1  UNL1        0.0327
      9 C          21.9486   38.1722   30.2094 C.3     1  UNL1        0.0942
     10 C          19.6298   39.7940   32.9409 C.ar    1  UNL1        0.2289
     11 C          18.2552   39.5600   32.9334 C.ar    1  UNL1        0.0784
     12 C          17.6981   38.9378   31.8324 C.ar    1  UNL1        0.1066
     13 N          18.4803   38.5843   30.8235 N.ar    1  UNL1       -0.2119
     14 C          19.7834   38.8196   30.8586 C.ar    1  UNL1        0.2227
     15 N          20.3552   39.4088   31.8983 N.ar    1  UNL1       -0.1787
     16 C          20.1774   39.7088   35.2495 C.3     1  UNL1        0.2542
     17 O          20.2176   40.4013   34.0001 O.3     1  UNL1       -0.4560
     18 C          25.4739   38.8633   27.6939 C.3     1  UNL1        0.2404
     19 C          26.6514   37.9877   28.1271 C.3     1  UNL1        0.1902
     20 O          26.1698   36.6989   28.5133 O.3     1  UNL1       -0.3435
     21 C          27.0780   35.9610   29.3336 C.3     1  UNL1        0.1599
     22 C          27.1212   34.5274   28.8710 C.ar    1  UNL1        0.0087
     23 C          27.1976   33.5042   29.7974 C.ar    1  UNL1       -0.0016
     24 C          27.2324   32.1890   29.3731 C.ar    1  UNL1       -0.0002
     25 C          27.2010   31.8974   28.0223 C.ar    1  UNL1       -0.0000
     26 C          27.1303   32.9209   27.0957 C.ar    1  UNL1       -0.0002
     27 C          27.0902   34.2359   27.5200 C.ar    1  UNL1       -0.0016
     28 C          26.6156   36.0126   30.7670 C.ar    1  UNL1        0.0087
     29 C          27.5314   36.2193   31.7816 C.ar    1  UNL1       -0.0016
     30 C          27.1067   36.2714   33.0961 C.ar    1  UNL1       -0.0002
     31 C          25.7675   36.1066   33.3967 C.ar    1  UNL1       -0.0000
     32 C          24.8525   35.8941   32.3826 C.ar    1  UNL1       -0.0002
     33 C          25.2765   35.8473   31.0677 C.ar    1  UNL1       -0.0016
@<TRIPOS>BOND
     1    16    17    1
     2    17    10    1
     3    10    15   ar
     4    10    11   ar
     5    11    12   ar
     6    12    13   ar
     7    13    14   ar
     8    14    15   ar
     9    14     4    1
    10     4     9    1
    11     4     5    1
    12     5     6    1
    13     6     7    1
    14     7     8    1
    15     7     2    1
    16     8     9    1
    17     2     3    2
    18     2     1    1
    19     1    18    1
    20    18    19    1
    21    19    20    1
    22    20    21    1
    23    21    22    1
    24    21    28    1
    25    22    27   ar
    26    22    23   ar
    27    23    24   ar
    28    24    25   ar
    29    25    26   ar
    30    26    27   ar
    31    28    33   ar
    32    28    29   ar
    33    29    30   ar
    34    30    31   ar
    35    31    32   ar
    36    32    33   ar
@<TRIPOS>MOLECULE
ZINC01723437
 33 36 0 0 0
SMALL
GASTEIGER

@<TRIPOS>ATOM
      1 C          20.9475   37.6366   28.9298 C.3     1  UNL1        0.2568
      2 C          22.3928   38.1917   28.9366 C.3     1  UNL1        0.2719
      3 C          22.5824   38.5781   27.4797 C.2     1  UNL1        0.2066
      4 C          21.6200   37.9946   26.7896 C.2     1  UNL1        0.2091
      5 O          20.7876   37.2453   27.5524 O.2     1  UNL1       -0.4651
      6 C          19.9415   38.7250   29.3097 C.3     1  UNL1        0.2562
      7 O          20.2655   39.2454   30.6260 O.3     1  UNL1       -0.4413
      8 C          19.4644   38.8758   31.6439 C.2     1  UNL1        0.3413
      9 O          18.7104   37.9326   31.5118 O.2     1  UNL1       -0.2449
     10 C          19.5755   41.0088   35.3143 C.ar    1  UNL1        0.0000
     11 C          20.6712   40.2625   34.9182 C.ar    1  UNL1        0.0002
     12 C          20.6419   39.5672   33.7271 C.ar    1  UNL1        0.0064
     13 C          19.5029   39.6174   32.9210 C.ar    1  UNL1        0.0756
     14 C          18.4026   40.3764   33.3245 C.ar    1  UNL1        0.0064
     15 C          18.4438   41.0633   34.5201 C.ar    1  UNL1        0.0002
     16 O          23.5615   39.3773   26.9792 O.3     1  UNL1       -0.4184
     17 C          24.3283   40.0349   27.8693 C.2     1  UNL1        0.3456
     18 O          25.3073   39.4943   28.3443 O.2     1  UNL1       -0.2445
     19 C          23.9795   41.4137   28.2685 C.ar    1  UNL1        0.0760
     20 C          22.6437   41.8199   28.2934 C.ar    1  UNL1        0.0065
     21 C          22.3247   43.1071   28.6730 C.ar    1  UNL1        0.0002
     22 C          23.3254   43.9986   29.0167 C.ar    1  UNL1        0.0000
     23 C          24.6515   43.6045   28.9887 C.ar    1  UNL1        0.0002
     24 C          24.9843   42.3185   28.6170 C.ar    1  UNL1        0.0065
     25 O          23.3419   37.1654   29.3298 O.3     1  UNL1       -0.4373
     26 C          23.8324   37.2337   30.5826 C.2     1  UNL1        0.3416
     27 O          23.4311   38.0888   31.3462 O.2     1  UNL1       -0.2449
     28 C          24.8585   36.2686   31.0276 C.ar    1  UNL1        0.0757
     29 C          24.8997   35.8531   32.3599 C.ar    1  UNL1        0.0064
     30 C          25.8569   34.9472   32.7674 C.ar    1  UNL1        0.0002
     31 C          26.7821   34.4593   31.8616 C.ar    1  UNL1        0.0000
     32 C          26.7507   34.8712   30.5410 C.ar    1  UNL1        0.0002
     33 C          25.7953   35.7721   30.1189 C.ar    1  UNL1        0.0064
@<TRIPOS>BOND
     1    10    15   ar
     2    10    11   ar
     3    11    12   ar
     4    12    13   ar
     5    13    14   ar
     6    13     8    1
     7    14    15   ar
     8     8     9    2
     9     8     7    1
    10     7     6    1
    11     6     1    1
    12     1     5    1
    13     1     2    1
    14     2     3    1
    15     2    25    1
    16     3     4    2
    17     3    16    1
    18     4     5    1
    19    16    17    1
    20    17    18    2
    21    17    19    1
    22    19    24   ar
    23    19    20   ar
    24    20    21   ar
    25    21    22   ar
    26    22    23   ar
    27    23    24   ar
    28    25    26    1
    29    26    27    2
    30    26    28    1
    31    28    33   ar
    32    28    29   ar
    33    29    30   ar
    34    30    31   ar
    35    31    32   ar
    36    32    33   ar
@<TRIPOS>MOLECULE
ZINC22143101
 31 33 0 0 0
SMALL
GASTEIGER

@<TRIPOS>ATOM
      1 N          20.8406   38.8354   29.3802 N.am    1  UNL1       -0.2352
      2 C          21.0974   37.7655   28.6018 C.2     1  UNL1        0.2541
      3 O          20.2496   36.9081   28.4485 O.2     1  UNL1       -0.2695
      4 C          19.6677   38.8940   30.1097 C.ar    1  UNL1        0.1689
      5 N          18.4248   38.6968   29.6974 N.ar    1  UNL1       -0.2279
      6 C          17.4096   38.7842   30.5157 C.ar    1  UNL1        0.0736
      7 C          17.6729   39.1046   31.8411 C.ar    1  UNL1        0.1211
      8 S          19.4534   39.2526   31.7952 S.2     1  UNL1       -0.0450
      9 C          16.0000   38.5519   30.0358 C.3     1  UNL1        0.0529
     10 C          16.7505   39.2740   32.9617 C.2     1  UNL1        0.3486
     11 O          15.5768   38.9809   32.8332 O.2     1  UNL1       -0.2443
     12 O          17.2007   39.7556   34.1391 O.3     1  UNL1       -0.4451
     13 C          17.3663   41.1713   34.2403 C.3     1  UNL1        0.2089
     14 C          18.7264   41.4821   34.8683 C.3     1  UNL1        0.0513
     15 C          22.4096   37.6348   27.9348 C.ar    1  UNL1        0.0539
     16 C          23.5732   37.5066   28.6954 C.ar    1  UNL1        0.0043
     17 C          24.7949   37.3854   28.0664 C.ar    1  UNL1       -0.0022
     18 C          24.8686   37.3902   26.6847 C.ar    1  UNL1        0.0021
     19 C          23.7199   37.5223   25.9248 C.ar    1  UNL1       -0.0022
     20 C          22.4911   37.6395   26.5411 C.ar    1  UNL1        0.0043
     21 C          26.2067   37.2575   26.0045 C.3     1  UNL1        0.1538
     22 N          26.5468   35.8390   25.8684 N.ar    1  UNL1       -0.2449
     23 C          27.0973   35.0595   26.8225 C.ar    1  UNL1        0.0971
     24 C          27.2498   33.8188   26.3044 C.ar    1  UNL1        0.0427
     25 C          26.7852   33.8433   24.9853 C.ar    1  UNL1        0.1217
     26 N          26.3635   35.0539   24.7229 N.ar    1  UNL1       -0.1673
     27 C          21.8046   39.9361   29.4533 C.3     1  UNL1        0.1004
     28 C          21.4055   41.0303   28.4612 C.3     1  UNL1        0.0220
     29 C          22.5763   41.9964   28.2691 C.3     1  UNL1        0.0018
     30 C          24.2955   41.0782   26.7059 C.3     1  UNL1        0.0000
     31 C          23.8813   41.2035   28.1735 C.3     1  UNL1        0.0001
@<TRIPOS>BOND
     1    30    31    1
     2    31    29    1
     3    29    28    1
     4    28    27    1
     5    27     1    1
     6     1     4    1
     7     1     2   am
     8     4     8   ar
     9     4     5   ar
    10     5     6   ar
    11     6     7   ar
    12     6     9    1
    13     7     8   ar
    14     7    10    1
    15    10    11    2
    16    10    12    1
    17    12    13    1
    18    13    14    1
    19     2     3    2
    20     2    15    1
    21    15    20   ar
    22    15    16   ar
    23    16    17   ar
    24    17    18   ar
    25    18    19   ar
    26    18    21    1
    27    19    20   ar
    28    21    22    1
    29    22    26   ar
    30    22    23   ar
    31    23    24   ar
    32    24    25   ar
    33    25    26   ar
@<TRIPOS>MOLECULE
ZINC24738115
 31 33 0 0 0
SMALL
GASTEIGER

@<TRIPOS>ATOM
      1 C          21.9679   38.5484   29.7213 C.ar    1  UNL1        0.1413
      2 N          22.8871   37.7134   30.1695 N.ar    1  UNL1       -0.2133
      3 C          24.1557   37.8533   29.8111 C.ar    1  UNL1        0.1550
      4 C          24.5039   38.9073   28.9450 C.ar    1  UNL1        0.1139
      5 C          23.4946   39.7707   28.4933 C.ar    1  UNL1        0.1159
      6 N          22.2465   39.5483   28.9100 N.ar    1  UNL1       -0.2242
      7 C          25.9084   39.0565   28.5520 C.ar    1  UNL1        0.2691
      8 O          26.2578   39.9518   27.8061 O.2     1  UNL1       -0.2667
      9 N          26.8042   38.1706   29.0427 N.ar    1  UNL1       -0.2466
     10 C          26.4236   37.1846   29.8704 C.ar    1  UNL1        0.3349
     11 O          27.2692   36.4174   30.2877 O.2     1  UNL1       -0.2461
     12 N          25.1474   37.0050   30.2542 N.ar    1  UNL1       -0.2659
     13 C          28.2156   38.2922   28.6692 C.3     1  UNL1        0.1382
     14 C          20.5387   38.3489   30.1560 C.3     1  UNL1        0.0658
     15 C          20.2177   39.3038   31.3073 C.3     1  UNL1        0.0080
     16 C          19.0768   38.7254   32.1467 C.3     1  UNL1        0.0005
     17 C          18.8747   39.5865   33.3952 C.3     1  UNL1        0.0000
     18 C          20.5108   40.3156   35.1370 C.3     1  UNL1        0.0000
     19 C          19.8167   39.1089   34.5022 C.3     1  UNL1        0.0000
     20 S          23.8638   41.1086   27.4079 S.3     1  UNL1       -0.0860
     21 C          23.9974   42.4582   28.6066 C.3     1  UNL1        0.1321
     22 C          22.7310   43.3151   28.5531 C.3     1  UNL1        0.0220
     23 C          25.1949   43.3100   28.2726 C.ar    1  UNL1        0.2463
     24 N          25.4594   43.8657   27.1147 N.ar    1  UNL1       -0.1942
     25 C          26.6200   44.5235   27.2855 C.ar    1  UNL1        0.1809
     26 N          26.9952   44.3378   28.5157 N.ar    1  UNL1       -0.0606
     27 O          26.1872   43.6482   29.1014 O.2     1  UNL1       -0.3365
     28 C          27.3508   45.3286   26.2421 C.3     1  UNL1        0.0773
     29 C          24.8090   35.9015   31.1563 C.3     1  UNL1        0.1120
     30 C          24.9100   36.3789   32.6064 C.3     1  UNL1        0.0247
     31 C          25.6307   35.3199   33.4431 C.3     1  UNL1        0.0021
@<TRIPOS>BOND
     1    18    19    1
     2    19    17    1
     3    17    16    1
     4    16    15    1
     5    15    14    1
     6    14     1    1
     7     1     6   ar
     8     1     2   ar
     9     2     3   ar
    10     3    12   ar
    11     3     4   ar
    12     4     5   ar
    13     4     7   ar
    14     5     6   ar
    15     5    20    1
    16    20    21    1
    17    21    22    1
    18    21    23    1
    19    23    27   ar
    20    23    24   ar
    21    24    25   ar
    22    25    26   ar
    23    25    28    1
    24    26    27   ar
    25     7     8    2
    26     7     9   ar
    27     9    10   ar
    28     9    13    1
    29    10    11    2
    30    10    12   ar
    31    12    29    1
    32    29    30    1
    33    30    31    1
@<TRIPOS>MOLECULE
ZINC31128208
 28 29 0 0 0
SMALL
GASTEIGER

@<TRIPOS>ATOM
      1 C          10.8098   36.7631   26.6493 C.3     1  UNL1        0.0575
      2 C          11.5480   37.7714   25.7666 C.3     1  UNL1        0.2446
      3 C          10.7829   39.0694   25.7387 C.2     1  UNL1        0.2665
      4 O          10.2324   39.4705   26.7422 O.2     1  UNL1       -0.2710
      5 N          10.7102   39.7845   24.5986 N.am    1  UNL1       -0.2679
      6 C          11.2584   39.2379   23.3549 C.3     1  UNL1        0.1203
      7 C          10.2419   38.3275   22.7153 C.2     1  UNL1       -0.0047
      8 C          10.5249   37.0633   22.5217 C.2     1  UNL1       -0.0031
      9 C          10.0831   41.1086   24.6031 C.3     1  UNL1        0.1270
     10 C          10.5977   41.9120   23.4365 C.ar    1  UNL1        0.0273
     11 C           9.9061   42.4681   22.4119 C.ar    1  UNL1        0.0044
     12 C          10.5949   43.1738   21.4433 C.ar    1  UNL1        0.0072
     13 C          11.9426   43.2800   21.5410 C.ar    1  UNL1        0.0352
     14 S          12.2768   42.3716   23.0411 S.2     1  UNL1       -0.0891
     15 O          12.8765   38.0041   26.3043 O.3     1  UNL1       -0.4397
     16 C          13.3054   37.1590   27.2618 C.2     1  UNL1        0.3416
     17 O          13.3990   35.9710   27.0259 O.2     1  UNL1       -0.2449
     18 C          13.6617   37.6767   28.5980 C.ar    1  UNL1        0.0782
     19 C          14.9968   37.9362   28.9163 C.ar    1  UNL1        0.0314
     20 C          15.3233   38.4249   30.1635 C.ar    1  UNL1        0.1544
     21 C          14.3307   38.6593   31.1006 C.ar    1  UNL1        0.0906
     22 C          13.0037   38.4045   30.7912 C.ar    1  UNL1        0.0700
     23 C          12.6648   37.9143   29.5464 C.ar    1  UNL1        0.0188
     24 CL         11.7663   38.7013   31.9721 Cl      1  UNL1       -0.0813
     25 CL         14.7500   39.2752   32.6685 Cl      1  UNL1       -0.0796
     26 N          16.7378   38.7000   30.5016 N.pl3   1  UNL1        0.0585
     27 O          17.0347   39.0724   31.6227 O.2     1  UNL1       -0.1261
     28 O          17.6049   38.5540   29.6589 O.2     1  UNL1       -0.1261
@<TRIPOS>BOND
     1     1     2    1
     2     2     3    1
     3     2    15    1
     4     3     4    2
     5     3     5   am
     6     5     6    1
     7     5     9    1
     8     6     7    1
     9     7     8    2
    10     9    10    1
    11    10    14   ar
    12    10    11   ar
    13    11    12   ar
    14    12    13   ar
    15    13    14   ar
    16    15    16    1
    17    16    17    2
    18    16    18    1
    19    18    23   ar
    20    18    19   ar
    21    19    20   ar
    22    20    21   ar
    23    20    26    1
    24    21    22   ar
    25    21    25    1
    26    22    23   ar
    27    22    24    1
    28    26    27    2
    29    26    28    2
@<TRIPOS>MOLECULE
ZINC31011975
 33 36 0 0 0
SMALL
GASTEIGER

@<TRIPOS>ATOM
      1 O          11.8726   36.9537   26.7457 O.3     1  UNL1       -0.4350
      2 C          10.7825   37.2964   26.0313 C.2     1  UNL1        0.3444
      3 O           9.9071   36.4782   25.8281 O.2     1  UNL1       -0.2448
      4 C          10.9210   39.0666   24.2038 C.ar    1  UNL1        0.0682
      5 C          10.6519   38.6626   25.4972 C.ar    1  UNL1        0.1100
      6 C          10.2308   39.8070   26.2126 C.ar    1  UNL1        0.1281
      7 N          10.2413   40.8224   25.3935 N.ar    1  UNL1       -0.1636
      8 N          10.6682   40.3858   24.1345 N.ar    1  UNL1       -0.2334
      9 C          10.8083   41.1879   22.9936 C.ar    1  UNL1        0.0824
     10 C          11.7886   40.8965   22.0545 C.ar    1  UNL1        0.0188
     11 C          11.9205   41.6853   20.9284 C.ar    1  UNL1       -0.0027
     12 C          11.0844   42.7708   20.7412 C.ar    1  UNL1       -0.0218
     13 C          10.1111   43.0672   21.6778 C.ar    1  UNL1       -0.0027
     14 C           9.9707   42.2787   22.8030 C.ar    1  UNL1        0.0188
     15 C          11.2347   43.6328   19.5143 C.3     1  UNL1        0.0310
     16 C          10.2047   37.5044   22.4161 C.3     1  UNL1        0.0067
     17 C          11.4025   38.1898   23.0766 C.3     1  UNL1        0.0461
     18 C          11.8310   37.2081   28.1746 C.3     1  UNL1        0.2957
     19 C          13.1917   37.6526   28.6456 C.ar    1  UNL1        0.2812
     20 N          13.5243   37.9733   29.8711 N.ar    1  UNL1       -0.1876
     21 C          14.8344   38.3045   29.8171 C.ar    1  UNL1        0.2035
     22 N          15.2164   38.1669   28.5737 N.ar    1  UNL1       -0.0559
     23 O          14.2873   37.7884   27.8919 O.2     1  UNL1       -0.3331
     24 C          15.6798   38.7416   30.9550 C.ar    1  UNL1        0.0423
     25 C          15.0863   39.2096   32.1261 C.ar    1  UNL1        0.0065
     26 C          15.8730   39.6105   33.1861 C.ar    1  UNL1        0.0401
     27 C          17.2554   39.5600   33.0853 C.ar    1  UNL1        0.1724
     28 C          17.8539   39.0987   31.9153 C.ar    1  UNL1        0.1725
     29 C          17.0689   38.6904   30.8523 C.ar    1  UNL1        0.0432
     30 O          19.2095   39.0494   31.8183 O.3     1  UNL1       -0.4684
     31 C          19.7547   38.5504   30.5953 C.3     1  UNL1        0.2526
     32 O          18.0272   39.9617   34.1296 O.3     1  UNL1       -0.4684
     33 C          18.1209   41.3683   34.3637 C.3     1  UNL1        0.2526
@<TRIPOS>BOND
     1    16    17    1
     2    17     4    1
     3     4     8   ar
     4     4     5   ar
     5     5     6   ar
     6     5     2    1
     7     6     7   ar
     8     7     8   ar
     9     8     9    1
    10     9    14   ar
    11     9    10   ar
    12    10    11   ar
    13    11    12   ar
    14    12    13   ar
    15    12    15    1
    16    13    14   ar
    17     2     3    2
    18     2     1    1
    19     1    18    1
    20    18    19    1
    21    19    23   ar
    22    19    20   ar
    23    20    21   ar
    24    21    22   ar
    25    21    24    1
    26    22    23   ar
    27    24    29   ar
    28    24    25   ar
    29    25    26   ar
    30    26    27   ar
    31    27    28   ar
    32    27    32    1
    33    28    29   ar
    34    28    30    1
    35    30    31    1
    36    32    33    1
@<TRIPOS>MOLECULE
ZINC26891060
 33 36 0 0 0
SMALL
GASTEIGER

@<TRIPOS>ATOM
      1 C          22.1057   38.5327   29.3268 C.ar    1  UNL1        0.1764
      2 C          22.4979   39.8887   28.9094 C.ar    1  UNL1        0.0304
      3 C          21.5901   40.9370   28.8061 C.ar    1  UNL1        0.0019
      4 C          22.0343   42.1801   28.4076 C.ar    1  UNL1        0.0001
      5 C          23.3735   42.3946   28.1095 C.ar    1  UNL1        0.0002
      6 C          24.2899   41.3690   28.2055 C.ar    1  UNL1        0.0048
      7 C          23.8616   40.1073   28.6060 C.ar    1  UNL1        0.0593
      8 C          24.7699   38.9593   28.7342 C.ar    1  UNL1        0.2766
      9 O          25.9569   39.0740   28.4898 O.2     1  UNL1       -0.2655
     10 N          24.2580   37.7755   29.1294 N.ar    1  UNL1       -0.2119
     11 N          23.0197   37.5948   29.3950 N.ar    1  UNL1       -0.1599
     12 C          20.7005   38.2310   29.6585 C.2     1  UNL1        0.3616
     13 O          20.1802   37.2183   29.2342 O.2     1  UNL1       -0.2431
     14 O          19.9937   39.0783   30.4321 O.3     1  UNL1       -0.4318
     15 C          19.1826   38.4906   31.4832 C.3     1  UNL1        0.2889
     16 C          19.5185   39.1413   32.8004 C.ar    1  UNL1        0.0283
     17 C          19.5074   38.3940   33.9632 C.ar    1  UNL1       -0.0003
     18 C          19.8196   38.9899   35.1708 C.ar    1  UNL1       -0.0002
     19 C          20.1338   40.3353   35.2168 C.ar    1  UNL1       -0.0000
     20 C          20.1403   41.0837   34.0546 C.ar    1  UNL1       -0.0002
     21 C          19.8321   40.4868   32.8464 C.ar    1  UNL1       -0.0003
     22 C          17.7239   38.7081   31.1731 C.2     1  UNL1        0.3622
     23 O          17.3273   38.6120   30.0359 O.2     1  UNL1       -0.2457
     24 O          16.8654   39.0084   32.1602 O.3     1  UNL1       -0.4458
     25 C          16.1509   41.1974   32.9527 C.3     1  UNL1        0.0513
     26 C          15.9329   40.0941   31.9153 C.3     1  UNL1        0.2087
     27 C          25.1679   36.6343   29.2557 C.3     1  UNL1        0.1571
     28 C          25.5547   36.4578   30.7014 C.ar    1  UNL1        0.0022
     29 C          26.8142   36.8320   31.1306 C.ar    1  UNL1       -0.0023
     30 C          27.1670   36.6754   32.4580 C.ar    1  UNL1       -0.0003
     31 C          26.2621   36.1394   33.3551 C.ar    1  UNL1       -0.0000
     32 C          25.0044   35.7601   32.9248 C.ar    1  UNL1       -0.0003
     33 C          24.6516   35.9168   31.5974 C.ar    1  UNL1       -0.0023
@<TRIPOS>BOND
     1    25    26    1
     2    26    24    1
     3    24    22    1
     4    22    23    2
     5    22    15    1
     6    15    16    1
     7    15    14    1
     8    16    21   ar
     9    16    17   ar
    10    17    18   ar
    11    18    19   ar
    12    19    20   ar
    13    20    21   ar
    14    14    12    1
    15    12    13    2
    16    12     1    1
    17     1    11   ar
    18     1     2   ar
    19     2     7   ar
    20     2     3   ar
    21     3     4   ar
    22     4     5   ar
    23     5     6   ar
    24     6     7   ar
    25     7     8   ar
    26     8     9    2
    27     8    10   ar
    28    10    11   ar
    29    10    27    1
    30    27    28    1
    31    28    33   ar
    32    28    29   ar
    33    29    30   ar
    34    30    31   ar
    35    31    32   ar
    36    32    33   ar
@<TRIPOS>MOLECULE
ZINC08960795
 31 33 0 0 0
SMALL
GASTEIGER

@<TRIPOS>ATOM
      1 C          16.0569   38.8335   30.0514 C.ar    1  UNL1       -0.0851
      2 C          15.5394   39.1606   31.3103 C.ar    1  UNL1        0.0555
      3 C          16.4332   39.2840   32.3625 C.ar    1  UNL1       -0.0047
      4 C          17.7611   39.0828   32.0958 C.ar    1  UNL1        0.0996
      5 S          17.7600   38.7164   30.3511 S.2     1  UNL1       -0.1056
      6 C          15.9602   39.6280   33.7514 C.3     1  UNL1        0.0319
      7 C          18.8975   39.1515   33.0137 C.2     1  UNL1        0.3469
      8 O          19.1817   38.1900   33.7028 O.2     1  UNL1       -0.2443
      9 O          19.6307   40.2811   33.0961 O.3     1  UNL1       -0.4451
     10 C          20.0274   40.7030   34.4026 C.3     1  UNL1        0.2089
     11 C          18.8995   41.5166   35.0402 C.3     1  UNL1        0.0513
     12 C          14.0997   39.3601   31.5104 C.2     1  UNL1        0.3396
     13 O          13.6468   40.4860   31.5873 O.2     1  UNL1       -0.2450
     14 O          13.2788   38.2949   31.6091 O.3     1  UNL1       -0.4455
     15 C          11.8613   38.5675   31.7664 C.3     1  UNL1        0.2089
     16 C          11.1596   38.4152   30.4153 C.3     1  UNL1        0.0513
     17 N          15.3786   38.6510   28.8643 N.am    1  UNL1       -0.6030
     18 C          14.7576   37.4810   28.6161 C.2     1  UNL1        0.1167
     19 O          15.1549   36.4580   29.1410 O.2     1  UNL1       -0.3098
     20 C          11.6351   38.4806   24.8858 C.ar    1  UNL1        0.1728
     21 C          10.4164   37.9685   24.4804 C.ar    1  UNL1        0.0401
     22 C           9.8118   36.9375   25.1855 C.ar    1  UNL1        0.0033
     23 C          10.4124   36.4098   26.2935 C.ar    1  UNL1        0.0033
     24 C          11.6447   36.9119   26.7216 C.ar    1  UNL1        0.0407
     25 C          12.2651   37.9568   26.0141 C.ar    1  UNL1        0.1790
     26 O          13.4233   38.2430   26.6412 O.2     1  UNL1       -0.4492
     27 C          13.6006   37.4409   27.7117 C.ar    1  UNL1        0.1609
     28 C          12.5443   36.5945   27.8300 C.ar    1  UNL1        0.0419
     29 O          12.2173   39.4908   24.1865 O.3     1  UNL1       -0.4724
     30 C          12.1921   41.6207   23.0447 C.3     1  UNL1        0.0512
     31 C          11.3528   40.5048   23.6702 C.3     1  UNL1        0.2057
@<TRIPOS>UNITY_ATOM_ATTR
17 1
charge -1
@<TRIPOS>BOND
     1    30    31    1
     2    31    29    1
     3    29    20    1
     4    20    25   ar
     5    20    21   ar
     6    21    22   ar
     7    22    23   ar
     8    23    24   ar
     9    24    28   ar
    10    24    25   ar
    11    25    26   ar
    12    26    27   ar
    13    27    28   ar
    14    27    18    1
    15    18    19    2
    16    18    17    1
    17    17     1    1
    18     1     5   ar
    19     1     2   ar
    20     2     3   ar
    21     2    12    1
    22     3     4   ar
    23     3     6    1
    24     4     5   ar
    25     4     7    1
    26     7     8    2
    27     7     9    1
    28     9    10    1
    29    10    11    1
    30    12    13    2
    31    12    14    1
    32    14    15    1
    33    15    16    1
@<TRIPOS>MOLECULE
ZINC13840647
 31 33 0 0 0
SMALL
GASTEIGER

@<TRIPOS>ATOM
      1 C          22.5854   38.3542   29.7935 C.ar    1  UNL1        0.0953
      2 C          21.5144   38.3863   30.7619 C.ar    1  UNL1        0.0107
      3 C          20.4225   39.1048   30.4464 C.ar    1  UNL1        0.0131
      4 S          20.8110   39.7566   28.8354 S.2     1  UNL1       -0.0761
      5 C          22.3895   39.0778   28.6215 C.ar    1  UNL1        0.0837
      6 C          23.8181   37.6028   30.0358 C.2     1  UNL1        0.3431
      7 O          24.1655   37.3552   31.1750 O.2     1  UNL1       -0.2448
      8 C          25.9913   37.0182   29.2345 C.3     1  UNL1        0.2560
      9 O          24.5687   37.1849   28.9958 O.3     1  UNL1       -0.4413
     10 N          23.2479   39.2188   27.5436 N.am    1  UNL1       -0.3221
     11 H          23.2810   38.5244   26.8465 H       1  UNL1        0.1514
     12 C          24.0379   40.3067   27.4491 C.2     1  UNL1       -0.0367
     13 S          24.4744   40.9165   25.9101 S.2     1  UNL1       -0.0618
     14 N          24.4841   40.9146   28.5662 N.am    1  UNL1       -0.6259
     15 C          24.5909   42.3098   28.6088 C.ar    1  UNL1       -0.1004
     16 C          23.4454   43.0950   28.6202 C.ar    1  UNL1       -0.0207
     17 C          23.5529   44.4710   28.6621 C.ar    1  UNL1        0.0279
     18 C          24.8021   45.0682   28.6928 C.ar    1  UNL1        0.1417
     19 C          25.9453   44.2874   28.6814 C.ar    1  UNL1        0.0518
     20 C          25.8421   42.9104   28.6452 C.ar    1  UNL1        0.1224
     21 F          24.9052   46.4147   28.7334 F       1  UNL1       -0.2041
     22 N          27.0647   42.0759   28.6398 N.pl3   1  UNL1        0.0559
     23 O          27.6129   41.8056   27.5862 O.2     1  UNL1       -0.1262
     24 O          27.5225   41.6595   29.6888 O.2     1  UNL1       -0.1262
     25 C          19.1708   39.3091   31.2604 C.3     1  UNL1        0.0592
     26 C          19.5347   39.4431   32.7166 C.ar    1  UNL1       -0.0173
     27 C          20.1470   40.5953   33.1728 C.ar    1  UNL1       -0.0039
     28 C          20.4764   40.7203   34.5096 C.ar    1  UNL1       -0.0003
     29 C          20.2028   39.6887   35.3881 C.ar    1  UNL1       -0.0000
     30 C          19.5952   38.5343   34.9309 C.ar    1  UNL1       -0.0003
     31 C          19.2611   38.4115   33.5951 C.ar    1  UNL1       -0.0039
@<TRIPOS>UNITY_ATOM_ATTR
14 1
charge -1
@<TRIPOS>BOND
     1     8     9    1
     2     9     6    1
     3     6     7    2
     4     6     1    1
     5     1     5   ar
     6     1     2   ar
     7     2     3   ar
     8     3     4   ar
     9     3    25    1
    10     4     5   ar
    11     5    10    1
    12    10    12    1
    13    12    13    2
    14    12    14    1
    15    14    15    1
    16    15    20   ar
    17    15    16   ar
    18    16    17   ar
    19    17    18   ar
    20    18    19   ar
    21    18    21    1
    22    19    20   ar
    23    20    22    1
    24    22    23    2
    25    22    24    2
    26    25    26    1
    27    26    31   ar
    28    26    27   ar
    29    27    28   ar
    30    28    29   ar
    31    29    30   ar
    32    30    31   ar
    33    10    11    1
@<TRIPOS>MOLECULE
ZINC22713054
 33 34 0 0 0
SMALL
GASTEIGER

@<TRIPOS>ATOM
      1 C          12.5258   37.6047   28.8138 C.2     1  UNL1        0.2181
      2 O          11.3955   37.6617   29.2512 O.2     1  UNL1       -0.2873
      3 C          13.6520   38.0571   29.6336 C.ar    1  UNL1        0.0512
      4 C          15.0748   38.0440   29.2681 C.ar    1  UNL1        0.0168
      5 C          15.7409   38.5430   30.3228 C.ar    1  UNL1        0.0372
      6 N          14.8488   38.8671   31.3037 N.ar    1  UNL1       -0.3339
      7 C          13.5940   38.5871   30.9088 C.ar    1  UNL1        0.0400
      8 C          12.3424   38.8070   31.7188 C.3     1  UNL1        0.0501
      9 C          17.2354   38.7169   30.4093 C.3     1  UNL1        0.0500
     10 C          15.2076   39.4397   32.6036 C.3     1  UNL1        0.1054
     11 C          15.2355   40.9658   32.4984 C.3     1  UNL1        0.0245
     12 C          16.0807   41.5401   33.6372 C.3     1  UNL1        0.0026
     13 C          17.1789   40.5424   34.0104 C.3     1  UNL1        0.0117
     14 C          18.5451   41.2218   33.8970 C.3     1  UNL1        0.1096
     15 C          19.3532   40.9352   35.1363 C.2     1  UNL1        0.3171
     16 O          19.3004   41.6884   36.0795 O.2     1  UNL1       -0.2501
     17 O          20.1316   39.8431   35.1922 O.3     1  UNL1       -0.4444
     18 C          20.8105   39.4542   33.9690 C.3     1  UNL1        0.2556
     19 C          12.7710   37.0683   27.4270 C.3     1  UNL1        0.2770
     20 O          12.5522   38.1237   26.4542 O.3     1  UNL1       -0.4364
     21 C          11.4575   38.0198   25.6743 C.2     1  UNL1        0.3514
     22 O          10.6120   37.1825   25.9220 O.2     1  UNL1       -0.2441
     23 C          11.8563   40.1727   24.5390 C.2     1  UNL1        0.0168
     24 C          11.2862   38.9200   24.5236 C.2     1  UNL1        0.1438
     25 C          10.6540   43.9243   20.3577 C.3     1  UNL1        0.0310
     26 C          10.9697   42.9407   21.4549 C.ar    1  UNL1       -0.0218
     27 C          12.2098   42.3264   21.4927 C.ar    1  UNL1       -0.0043
     28 C          12.5068   41.4249   22.4920 C.ar    1  UNL1       -0.0003
     29 C          11.5495   41.1313   23.4716 C.ar    1  UNL1        0.0009
     30 C          10.2956   41.7539   23.4229 C.ar    1  UNL1       -0.0003
     31 C          10.0176   42.6564   22.4191 C.ar    1  UNL1       -0.0043
     32 C          10.5263   38.4931   23.3874 C.1     1  UNL1        0.1070
     33 N           9.9234   38.1544   22.4862 N.1     1  UNL1       -0.1906
@<TRIPOS>BOND
     1    25    26    1
     2    26    31   ar
     3    26    27   ar
     4    27    28   ar
     5    28    29   ar
     6    29    30   ar
     7    29    23    1
     8    30    31   ar
     9    23    24    2
    10    24    32    1
    11    24    21    1
    12    32    33    3
    13    21    22    2
    14    21    20    1
    15    20    19    1
    16    19     1    1
    17     1     2    2
    18     1     3    1
    19     3     7   ar
    20     3     4   ar
    21     4     5   ar
    22     5     6   ar
    23     5     9    1
    24     6     7   ar
    25     6    10    1
    26     7     8    1
    27    10    11    1
    28    11    12    1
    29    12    13    1
    30    13    14    1
    31    14    15    1
    32    15    16    2
    33    15    17    1
    34    17    18    1
@<TRIPOS>MOLECULE
ZINC15088189
 33 35 0 0 0
SMALL
GASTEIGER

@<TRIPOS>ATOM
      1 C          20.5153   39.0836   28.5388 C.3     1  UNL1        0.1160
      2 C          21.3593   38.3986   27.4950 C.2     1  UNL1        0.3177
      3 O          20.8354   37.7131   26.6491 O.2     1  UNL1       -0.2501
      4 O          22.6929   38.5500   27.5050 O.3     1  UNL1       -0.4442
      5 C          23.2169   39.8108   27.0108 C.3     1  UNL1        0.2296
      6 C          24.0912   39.5530   25.7820 C.3     1  UNL1        0.0560
      7 C          24.0432   40.4675   28.0865 C.2     1  UNL1        0.2125
      8 O          24.5509   39.7936   28.9573 O.2     1  UNL1       -0.2875
      9 C          24.2338   41.9268   28.0800 C.ar    1  UNL1        0.0340
     10 C          25.4823   42.4714   27.7620 C.ar    1  UNL1       -0.0019
     11 C          25.6516   43.8395   27.7539 C.ar    1  UNL1       -0.0257
     12 C          24.5926   44.6735   28.0688 C.ar    1  UNL1       -0.0261
     13 C          23.3557   44.1423   28.3897 C.ar    1  UNL1       -0.0087
     14 C          23.1691   42.7760   28.3974 C.ar    1  UNL1       -0.0193
     15 C          21.8212   42.1995   28.7466 C.3     1  UNL1        0.0311
     16 C          24.7878   46.1678   28.0628 C.3     1  UNL1        0.0307
     17 C          26.9945   44.4286   27.4065 C.3     1  UNL1        0.0307
     18 C          20.4187   38.1948   29.7805 C.3     1  UNL1        0.0624
     19 N          18.1293   39.2802   32.6155 N.ar    1  UNL1       -0.2931
     20 C          16.9154   39.1635   31.9688 C.ar    1  UNL1        0.0801
     21 C          15.7316   39.4670   32.6352 C.ar    1  UNL1        0.0188
     22 C          14.5261   39.3471   31.9795 C.ar    1  UNL1        0.0016
     23 C          14.4815   38.9254   30.6569 C.ar    1  UNL1        0.0016
     24 C          15.6287   38.6225   29.9840 C.ar    1  UNL1        0.0206
     25 C          16.8703   38.7361   30.6286 C.ar    1  UNL1        0.0969
     26 N          18.0046   38.4374   29.9667 N.ar    1  UNL1       -0.2434
     27 C          19.1664   38.5359   30.5462 C.ar    1  UNL1        0.1154
     28 C          19.2605   38.9722   31.9438 C.ar    1  UNL1        0.2745
     29 O          20.3451   39.0603   32.4902 O.2     1  UNL1       -0.2657
     30 C          18.1897   39.7240   34.0103 C.3     1  UNL1        0.1091
     31 C          18.3590   41.2439   34.0551 C.3     1  UNL1        0.0246
     32 C          20.2768   40.4531   35.4477 C.3     1  UNL1        0.0001
     33 C          19.3187   41.6171   35.1868 C.3     1  UNL1        0.0020
@<TRIPOS>BOND
     1    32    33    1
     2    33    31    1
     3    31    30    1
     4    30    19    1
     5    19    28   ar
     6    19    20   ar
     7    20    25   ar
     8    20    21   ar
     9    21    22   ar
    10    22    23   ar
    11    23    24   ar
    12    24    25   ar
    13    25    26   ar
    14    26    27   ar
    15    27    28   ar
    16    27    18    1
    17    28    29    2
    18    18     1    1
    19     1     2    1
    20     2     3    2
    21     2     4    1
    22     4     5    1
    23     5     6    1
    24     5     7    1
    25     7     8    2
    26     7     9    1
    27     9    14   ar
    28     9    10   ar
    29    10    11   ar
    30    11    12   ar
    31    11    17    1
    32    12    13   ar
    33    12    16    1
    34    13    14   ar
    35    14    15    1
@<TRIPOS>MOLECULE
ZINC00961899
 29 30 0 0 0
SMALL
GASTEIGER

@<TRIPOS>ATOM
      1 N          22.5695   38.0360   28.5698 N.3     1  UNL1       -0.1489
      2 S          20.9177   37.9353   28.5060 S.O2    1  UNL1        0.0636
      3 O          20.5991   36.5548   28.3961 O.2     1  UNL1       -0.1528
      4 O          20.4890   38.8946   27.5494 O.2     1  UNL1       -0.1528
      5 C          20.3024   38.4714   30.0676 C.ar    1  UNL1        0.1222
      6 C          18.9621   38.3218   30.3707 C.ar    1  UNL1        0.0196
      7 C          18.4795   38.7420   31.5960 C.ar    1  UNL1       -0.0029
      8 C          19.3373   39.3114   32.5184 C.ar    1  UNL1       -0.0227
      9 C          20.6778   39.4609   32.2154 C.ar    1  UNL1       -0.0029
     10 C          21.1604   39.0407   30.9900 C.ar    1  UNL1        0.0196
     11 C          18.8112   39.7694   33.8542 C.3     1  UNL1        0.0189
     12 C          19.2251   41.2227   34.0942 C.3     1  UNL1        0.0044
     13 C          17.2848   39.6656   33.8641 C.3     1  UNL1        0.0044
     14 C          19.3898   38.8851   34.9607 C.3     1  UNL1        0.0044
     15 C          23.2868   37.5639   29.7567 C.3     1  UNL1        0.0963
     16 C          24.6040   36.9123   29.3310 C.3     1  UNL1        0.0192
     17 C          24.6058   36.5819   31.8075 C.3     1  UNL1        0.0000
     18 C          25.4867   36.6951   30.5617 C.3     1  UNL1        0.0014
     19 C          26.2943   35.4071   30.3892 C.3     1  UNL1        0.0000
     20 C          23.3133   38.5972   27.4393 C.3     1  UNL1        0.1479
     21 C          23.8554   39.9514   27.8173 C.ar    1  UNL1        0.1064
     22 N          23.2400   41.1052   27.8195 N.ar    1  UNL1       -0.2347
     23 C          23.8919   42.2075   28.1938 C.ar    1  UNL1        0.1633
     24 C          25.2090   42.0730   28.5557 C.ar    1  UNL1        0.0623
     25 S          25.4523   40.3675   28.3500 S.2     1  UNL1       -0.0686
     26 C          23.2256   43.5189   28.2124 C.2     1  UNL1        0.3598
     27 O          22.2709   43.7054   28.9413 O.2     1  UNL1       -0.2432
     28 O          23.6737   44.5138   27.4209 O.3     1  UNL1       -0.4403
     29 C          24.3527   45.6195   28.0725 C.3     1  UNL1        0.2560
@<TRIPOS>BOND
     1    17    18    1
     2    18    19    1
     3    18    16    1
     4    16    15    1
     5    15     1    1
     6     1    20    1
     7     1     2    1
     8    20    21    1
     9    21    25   ar
    10    21    22   ar
    11    22    23   ar
    12    23    24   ar
    13    23    26    1
    14    24    25   ar
    15    26    27    2
    16    26    28    1
    17    28    29    1
    18     2     3    2
    19     2     4    2
    20     2     5    1
    21     5    10   ar
    22     5     6   ar
    23     6     7   ar
    24     7     8   ar
    25     8     9   ar
    26     8    11    1
    27     9    10   ar
    28    11    12    1
    29    11    13    1
    30    11    14    1
@<TRIPOS>MOLECULE
ZINC18247919
 32 35 0 0 0
SMALL
GASTEIGER

@<TRIPOS>ATOM
      1 C          23.6165   38.3003   29.6264 C.ar    1  UNL1        0.0786
      2 C          22.6476   38.5607   30.5854 C.ar    1  UNL1        0.0256
      3 C          21.2949   38.5749   30.2118 C.ar    1  UNL1        0.0815
      4 N          20.9045   38.3493   28.9747 N.ar    1  UNL1       -0.2454
      5 C          21.7668   38.0910   27.9904 C.ar    1  UNL1        0.0815
      6 C          23.1588   38.0577   28.2578 C.ar    1  UNL1        0.0239
      7 C          24.0604   37.7925   27.2215 C.ar    1  UNL1        0.0017
      8 C          23.5913   37.5725   25.9603 C.ar    1  UNL1        0.0001
      9 C          22.2248   37.6081   25.6906 C.ar    1  UNL1        0.0015
     10 C          21.3200   37.8535   26.6771 C.ar    1  UNL1        0.0191
     11 C          20.2703   38.8543   31.2453 C.ar    1  UNL1        0.0179
     12 C          18.9151   38.7761   30.9250 C.ar    1  UNL1        0.0046
     13 C          17.9644   39.0310   31.8901 C.ar    1  UNL1        0.0371
     14 C          18.3549   39.3760   33.1775 C.ar    1  UNL1        0.1443
     15 C          19.7035   39.4607   33.4981 C.ar    1  UNL1        0.0371
     16 C          20.6591   39.2015   32.5390 C.ar    1  UNL1        0.0046
     17 O          17.4158   39.6316   34.1249 O.3     1  UNL1       -0.4236
     18 C          16.0876   39.8940   33.6676 C.3     1  UNL1        0.5087
     19 F          15.3156   38.7334   33.7868 F       1  UNL1       -0.1550
     20 F          15.5208   40.9126   34.4414 F       1  UNL1       -0.1550
     21 C          25.0532   38.2752   29.9721 C.2     1  UNL1        0.3417
     22 O          25.5952   37.2216   30.2394 O.2     1  UNL1       -0.2449
     23 O          25.7617   39.4209   29.9907 O.3     1  UNL1       -0.4369
     24 C          26.3740   39.8376   28.7418 C.3     1  UNL1        0.2752
     25 N          25.4583   42.1028   28.0100 N.ar    1  UNL1       -0.2138
     26 C          26.3627   41.3421   28.6542 C.ar    1  UNL1        0.2053
     27 N          27.2321   42.1637   29.1899 N.ar    1  UNL1       -0.1088
     28 N          26.8801   43.3663   28.8903 N.ar    1  UNL1       -0.0229
     29 N          25.8118   43.3328   28.1726 N.ar    1  UNL1       -0.0431
     30 C          24.2948   41.6237   27.2596 C.3     1  UNL1        0.1307
     31 C          22.6331   43.0037   28.5152 C.3     1  UNL1        0.0021
     32 C          23.0760   41.5773   28.1834 C.3     1  UNL1        0.0265
@<TRIPOS>BOND
     1    31    32    1
     2    32    30    1
     3    30    25    1
     4    25    29   ar
     5    25    26   ar
     6    26    27   ar
     7    26    24    1
     8    27    28   ar
     9    28    29   ar
    10    24    23    1
    11    23    21    1
    12    21    22    2
    13    21     1    1
    14     1     6   ar
    15     1     2   ar
    16     2     3   ar
    17     3     4   ar
    18     3    11    1
    19     4     5   ar
    20     5    10   ar
    21     5     6   ar
    22     6     7   ar
    23     7     8   ar
    24     8     9   ar
    25     9    10   ar
    26    11    16   ar
    27    11    12   ar
    28    12    13   ar
    29    13    14   ar
    30    14    15   ar
    31    14    17    1
    32    15    16   ar
    33    17    18    1
    34    18    19    1
    35    18    20    1
@<TRIPOS>MOLECULE
ZINC28360073
 31 33 0 0 0
SMALL
GASTEIGER

@<TRIPOS>ATOM
      1 N          22.4215   38.6123   29.6273 N.am    1  UNL1       -0.2373
      2 C          22.8391   39.5901   28.7991 C.2     1  UNL1        0.2514
      3 O          22.1924   40.6103   28.6906 O.2     1  UNL1       -0.2726
      4 C          21.2533   38.7725   30.3547 C.ar    1  UNL1        0.1688
      5 N          21.1061   39.1498   31.6032 N.ar    1  UNL1       -0.2237
      6 C          19.8947   39.2639   32.1891 C.ar    1  UNL1        0.0892
      7 C          19.5995   39.6570   33.5151 C.ar    1  UNL1        0.0194
      8 C          18.3031   39.7212   33.9542 C.ar    1  UNL1       -0.0027
      9 C          17.2390   39.4055   33.1215 C.ar    1  UNL1       -0.0213
     10 C          17.4908   39.0172   31.8185 C.ar    1  UNL1        0.0038
     11 C          18.7862   38.9500   31.3699 C.ar    1  UNL1        0.0494
     12 S          19.5632   38.5180   29.8317 S.2     1  UNL1       -0.0512
     13 C          15.8234   39.4846   33.6322 C.3     1  UNL1        0.0310
     14 C          23.2028   37.3800   29.7583 C.3     1  UNL1        0.1001
     15 C          23.9143   37.3689   31.1127 C.3     1  UNL1        0.0220
     16 C          25.0098   35.8194   32.7380 C.3     1  UNL1        0.0001
     17 C          24.7134   36.0722   31.2584 C.3     1  UNL1        0.0018
     18 C          24.1099   39.4158   28.0080 C.3     1  UNL1        0.1846
     19 N          25.0463   40.4910   28.3450 N.am    1  UNL1       -0.2376
     20 C          25.0911   41.6812   27.7144 C.2     1  UNL1        0.2111
     21 O          24.3908   42.0503   26.7961 O.2     1  UNL1       -0.2762
     22 C          26.1980   42.4631   28.3934 C.3     1  UNL1       -0.0137
     23 N          26.7002   41.5328   29.4192 N.am    1  UNL1       -0.6124
     24 C          25.9663   40.4103   29.3130 C.2     1  UNL1        0.1380
     25 O          26.1217   39.4323   30.0177 O.2     1  UNL1       -0.2967
     26 C          25.6451   43.7332   29.0430 C.3     1  UNL1       -0.0115
     27 C          25.9191   44.9323   28.1331 C.3     1  UNL1       -0.0012
     28 C          24.7002   45.8570   28.1271 C.3     1  UNL1       -0.0000
     29 C          27.3019   42.8062   27.3911 C.3     1  UNL1       -0.0115
     30 C          28.3662   41.7071   27.4084 C.3     1  UNL1       -0.0012
     31 C          29.6461   42.2260   26.7501 C.3     1  UNL1       -0.0000
@<TRIPOS>UNITY_ATOM_ATTR
23 1
charge -1
@<TRIPOS>BOND
     1    16    17    1
     2    17    15    1
     3    15    14    1
     4    14     1    1
     5     1     4    1
     6     1     2   am
     7     4    12   ar
     8     4     5   ar
     9     5     6   ar
    10     6    11   ar
    11     6     7   ar
    12     7     8   ar
    13     8     9   ar
    14     9    10   ar
    15     9    13    1
    16    10    11   ar
    17    11    12   ar
    18     2     3    2
    19     2    18    1
    20    18    19    1
    21    19    24   am
    22    19    20   am
    23    20    21    2
    24    20    22    1
    25    22    23    1
    26    22    26    1
    27    22    29    1
    28    23    24    1
    29    24    25    2
    30    26    27    1
    31    27    28    1
    32    29    30    1
    33    30    31    1
@<TRIPOS>MOLECULE
ZINC25487871
 31 33 0 0 0
SMALL
GASTEIGER

@<TRIPOS>ATOM
      1 C          20.8225   37.7156   28.2225 C.2     1  UNL1        0.3289
      2 O          20.4296   36.6027   28.4812 O.2     1  UNL1       -0.2491
      3 C          21.6066   37.9632   26.9596 C.3     1  UNL1        0.1743
      4 S          23.3118   38.3976   27.3836 S.3     1  UNL1       -0.0619
      5 N          24.3811   40.5313   25.9268 N.ar    1  UNL1       -0.1865
      6 C          23.7580   39.3201   25.9502 C.ar    1  UNL1        0.2152
      7 N          23.5581   38.9676   24.6983 N.ar    1  UNL1       -0.1011
      8 N          24.0012   39.8701   23.8998 N.ar    1  UNL1       -0.0218
      9 N          24.5170   40.8471   24.5635 N.ar    1  UNL1       -0.0382
     10 C          23.4592   44.0772   29.2085 C.3     1  UNL1        0.0311
     11 C          24.3696   43.0222   28.6350 C.ar    1  UNL1       -0.0204
     12 C          25.6174   42.8094   29.1921 C.ar    1  UNL1       -0.0045
     13 C          26.4557   41.8426   28.6684 C.ar    1  UNL1       -0.0031
     14 C          26.0487   41.0862   27.5864 C.ar    1  UNL1       -0.0041
     15 C          24.7970   41.2975   27.0250 C.ar    1  UNL1        0.0823
     16 C          23.9596   42.2731   27.5497 C.ar    1  UNL1        0.0147
     17 C          26.9632   40.0330   27.0158 C.3     1  UNL1        0.0326
     18 O          20.5605   38.7315   29.0599 O.3     1  UNL1       -0.4429
     19 C          20.9367   38.5528   30.4508 C.3     1  UNL1        0.2352
     20 C          19.7830   38.9450   31.3376 C.ar    1  UNL1        0.0245
     21 C          18.4883   38.6418   30.9594 C.ar    1  UNL1        0.0026
     22 C          17.4270   38.9944   31.7721 C.ar    1  UNL1        0.0400
     23 C          17.6588   39.6633   32.9632 C.ar    1  UNL1        0.1779
     24 C          18.9617   39.9735   33.3411 C.ar    1  UNL1        0.1724
     25 C          20.0213   39.6121   32.5247 C.ar    1  UNL1        0.0394
     26 O          19.1945   40.6294   34.5095 O.3     1  UNL1       -0.4684
     27 C          20.4691   40.4285   35.1235 C.3     1  UNL1        0.2526
     28 O          16.6156   40.0154   33.7613 O.3     1  UNL1       -0.4205
     29 C          15.8572   41.1616   33.3699 C.3     1  UNL1        0.5087
     30 F          14.8277   40.7676   32.5085 F       1  UNL1       -0.1550
     31 F          15.3089   41.7678   34.5054 F       1  UNL1       -0.1550
@<TRIPOS>BOND
     1    10    11    1
     2    11    16   ar
     3    11    12   ar
     4    12    13   ar
     5    13    14   ar
     6    14    15   ar
     7    14    17    1
     8    15    16   ar
     9    15     5    1
    10     5     9   ar
    11     5     6   ar
    12     6     7   ar
    13     6     4    1
    14     7     8   ar
    15     8     9   ar
    16     4     3    1
    17     3     1    1
    18     1     2    2
    19     1    18    1
    20    18    19    1
    21    19    20    1
    22    20    25   ar
    23    20    21   ar
    24    21    22   ar
    25    22    23   ar
    26    23    24   ar
    27    23    28    1
    28    24    25   ar
    29    24    26    1
    30    26    27    1
    31    28    29    1
    32    29    30    1
    33    29    31    1
@<TRIPOS>MOLECULE
ZINC23493652
 32 34 0 0 0
SMALL
GASTEIGER

@<TRIPOS>ATOM
      1 C          11.7938   38.0195   26.2097 C.ar    1  UNL1        0.1725
      2 N          11.2375   37.9455   27.4031 N.ar    1  UNL1       -0.2241
      3 C          11.9445   37.6212   28.4676 C.ar    1  UNL1        0.1112
      4 C          13.2672   37.3684   28.3123 C.ar    1  UNL1        0.0566
      5 S          13.4464   37.6095   26.5508 S.2     1  UNL1       -0.0505
      6 N          11.2073   38.3434   24.9904 N.am    1  UNL1       -0.2169
      7 C          10.7589   37.3664   24.1776 C.2     1  UNL1        0.2350
      8 O          10.7828   36.2114   24.5472 O.2     1  UNL1       -0.2741
      9 C          10.2278   37.7088   22.8095 C.3     1  UNL1        0.0956
     10 C          12.6858   42.0990   22.1810 C.3     1  UNL1        0.0311
     11 C          11.7866   41.5309   23.2485 C.ar    1  UNL1       -0.0206
     12 C          10.8368   42.3353   23.8517 C.ar    1  UNL1       -0.0042
     13 C          10.0099   41.8178   24.8315 C.ar    1  UNL1        0.0010
     14 C          10.1303   40.4952   25.2112 C.ar    1  UNL1        0.0153
     15 C          11.0827   39.6850   24.6076 C.ar    1  UNL1        0.0596
     16 C          11.9153   40.2092   23.6275 C.ar    1  UNL1        0.0110
     17 C          11.2984   37.5397   29.8266 C.3     1  UNL1        0.2548
     18 O          12.2538   37.9454   30.8419 O.3     1  UNL1       -0.4387
     19 C          12.1872   39.2228   31.2700 C.2     1  UNL1        0.3418
     20 O          11.1584   39.8566   31.1340 O.2     1  UNL1       -0.2449
     21 C          13.3537   39.8463   31.8983 C.2     1  UNL1        0.0819
     22 C          14.4785   39.1287   32.0934 C.2     1  UNL1        0.0066
     23 C          15.6514   39.7556   32.7251 C.ar    1  UNL1        0.0002
     24 C          15.4819   40.8307   33.6041 C.ar    1  UNL1        0.0002
     25 C          16.5787   41.4130   34.1979 C.ar    1  UNL1        0.0064
     26 C          17.8617   40.9373   33.9152 C.ar    1  UNL1        0.0756
     27 C          18.0323   39.8670   33.0333 C.ar    1  UNL1        0.0064
     28 C          16.9364   39.2804   32.4422 C.ar    1  UNL1        0.0002
     29 C          19.0389   41.5668   34.5487 C.2     1  UNL1        0.3413
     30 O          19.4719   42.6166   34.1177 O.2     1  UNL1       -0.2449
     31 O          19.6320   40.9763   35.6044 O.3     1  UNL1       -0.4413
     32 C          20.6416   39.9731   35.3173 C.3     1  UNL1        0.2560
@<TRIPOS>BOND
     1    10    11    1
     2    11    16   ar
     3    11    12   ar
     4    12    13   ar
     5    13    14   ar
     6    14    15   ar
     7    15    16   ar
     8    15     6    1
     9     6     1    1
    10     6     7   am
    11     1     5   ar
    12     1     2   ar
    13     2     3   ar
    14     3     4   ar
    15     3    17    1
    16     4     5   ar
    17    17    18    1
    18    18    19    1
    19    19    20    2
    20    19    21    1
    21    21    22    2
    22    22    23    1
    23    23    28   ar
    24    23    24   ar
    25    24    25   ar
    26    25    26   ar
    27    26    27   ar
    28    26    29    1
    29    27    28   ar
    30    29    30    2
    31    29    31    1
    32    31    32    1
    33     7     8    2
    34     7     9    1
@<TRIPOS>MOLECULE
ZINC05582777
 33 35 0 0 0
SMALL
GASTEIGER

@<TRIPOS>ATOM
      1 N          25.2975   37.7831   27.6845 N.2     1  UNL1       -0.2340
      2 C          24.3612   38.6844   27.4800 C.2     1  UNL1        0.3592
      3 H          25.2863   37.2390   28.5050 H       1  UNL1        0.3115
      4 C          28.2866   37.2357   24.8828 C.ar    1  UNL1        0.0002
      5 C          28.4050   38.2395   25.8286 C.ar    1  UNL1        0.0037
      6 C          27.4125   38.4285   26.7666 C.ar    1  UNL1        0.0421
      7 C          26.2830   37.6026   26.7605 C.ar    1  UNL1        0.1435
      8 C          26.1735   36.5870   25.8045 C.ar    1  UNL1        0.0421
      9 C          27.1724   36.4145   24.8701 C.ar    1  UNL1        0.0037
     10 C          23.2263   38.7976   28.4202 C.ar    1  UNL1        0.0868
     11 C          22.3271   39.8609   28.3071 C.ar    1  UNL1        0.0089
     12 C          21.2681   39.9611   29.1813 C.ar    1  UNL1        0.0148
     13 C          21.0988   39.0103   30.1832 C.ar    1  UNL1        0.0479
     14 C          21.9961   37.9532   30.3020 C.ar    1  UNL1        0.0148
     15 C          23.0540   37.8449   29.4273 C.ar    1  UNL1        0.0089
     16 N          20.0295   39.1169   31.0690 N.pl3   1  UNL1       -0.3053
     17 C          20.0877   40.0756   32.1752 C.3     1  UNL1        0.1070
     18 C          20.6887   39.3965   33.4075 C.3     1  UNL1        0.1267
     19 C          20.4739   40.2465   34.5899 C.1     1  UNL1        0.0750
     20 N          20.3080   40.9024   35.5025 N.1     1  UNL1       -0.1958
     21 C          18.8466   38.2704   30.8948 C.3     1  UNL1        0.1070
     22 C          17.6101   39.0098   31.4097 C.3     1  UNL1        0.1267
     23 C          16.5119   38.8635   30.4405 C.1     1  UNL1        0.0750
     24 N          15.6644   38.7506   29.6925 N.1     1  UNL1       -0.1958
     25 N          24.4377   39.5133   26.4019 N.2     1  UNL1        0.0825
     26 N          23.8385   39.1996   25.3033 N.2     1  UNL1       -0.0341
     27 C          23.9912   39.9805   24.1970 C.ar    1  UNL1        0.1278
     28 C          24.8765   41.0645   24.2179 C.ar    1  UNL1        0.0239
     29 C          25.0293   41.8464   23.0936 C.ar    1  UNL1        0.0131
     30 C          24.3007   41.5689   21.9479 C.ar    1  UNL1        0.0578
     31 C          23.4183   40.5005   21.9214 C.ar    1  UNL1        0.0131
     32 C          23.2590   39.7061   23.0359 C.ar    1  UNL1        0.0239
     33 CL         24.4946   42.5640   20.5388 Cl      1  UNL1       -0.0822
@<TRIPOS>UNITY_ATOM_ATTR
1 1
charge 1
@<TRIPOS>BOND
     1     4     9   ar
     2     4     5   ar
     3     5     6   ar
     4     6     7   ar
     5     7     8   ar
     6     7     1    1
     7     8     9   ar
     8     1     2    2
     9     2    10    1
    10     2    25    1
    11    10    15   ar
    12    10    11   ar
    13    11    12   ar
    14    12    13   ar
    15    13    14   ar
    16    13    16    1
    17    14    15   ar
    18    16    17    1
    19    16    21    1
    20    17    18    1
    21    18    19    1
    22    19    20    3
    23    21    22    1
    24    22    23    1
    25    23    24    3
    26    25    26    2
    27    26    27    1
    28    27    32   ar
    29    27    28   ar
    30    28    29   ar
    31    29    30   ar
    32    30    31   ar
    33    30    33    1
    34    31    32   ar
    35     1     3    1
@<TRIPOS>MOLECULE
ZINC20790196
 33 36 0 0 0
SMALL
GASTEIGER

@<TRIPOS>ATOM
      1 O          13.2488   37.3366   27.7029 O.3     1  UNL1       -0.4368
      2 C          12.0569   37.4240   27.0764 C.2     1  UNL1        0.3418
      3 O          11.1288   36.7239   27.4345 O.2     1  UNL1       -0.2449
      4 C          10.7142   38.9862   25.8485 C.2     1  UNL1        0.0069
      5 C          11.8863   38.3318   26.0008 C.2     1  UNL1        0.0819
      6 C           9.6337   41.9774   23.8575 C.ar    1  UNL1        0.1754
      7 C           9.7994   41.0992   24.9112 C.ar    1  UNL1        0.0403
      8 C          10.5353   39.9225   24.7301 C.ar    1  UNL1        0.0064
      9 C          11.1055   39.6426   23.4828 C.ar    1  UNL1        0.0403
     10 C          10.9319   40.5235   22.4325 C.ar    1  UNL1        0.1754
     11 C          10.1984   41.6932   22.6164 C.ar    1  UNL1        0.2061
     12 C           7.6332   43.1837   23.4117 C.3     1  UNL1        0.2526
     13 O           8.9187   43.1209   24.0324 O.3     1  UNL1       -0.4683
     14 O          10.0339   42.5596   21.5823 O.3     1  UNL1       -0.4654
     15 C          11.0476   43.5497   21.3978 C.3     1  UNL1        0.2528
     16 O          11.4819   40.2504   21.2192 O.3     1  UNL1       -0.4683
     17 C          12.7349   40.8693   20.9208 C.3     1  UNL1        0.2526
     18 C          13.2842   37.7023   29.0839 C.3     1  UNL1        0.2769
     19 C          14.7120   37.9373   29.5048 C.2     1  UNL1        0.2170
     20 O          15.6197   37.4361   28.8761 O.2     1  UNL1       -0.2874
     21 C          15.0047   38.7751   30.6790 C.ar    1  UNL1        0.0384
     22 C          13.9719   39.4671   31.3211 C.ar    1  UNL1        0.0027
     23 C          14.2487   40.2481   32.4243 C.ar    1  UNL1       -0.0038
     24 C          15.5435   40.3581   32.8925 C.ar    1  UNL1       -0.0178
     25 C          16.5852   39.6800   32.2620 C.ar    1  UNL1       -0.0038
     26 C          16.3136   38.8853   31.1504 C.ar    1  UNL1        0.0027
     27 C          17.8605   39.9718   32.9635 C.ar    1  UNL1       -0.0039
     28 C          19.1643   39.5370   32.7186 C.ar    1  UNL1       -0.0003
     29 C          20.1953   39.9596   33.5316 C.ar    1  UNL1       -0.0000
     30 C          19.9431   40.8137   34.5901 C.ar    1  UNL1       -0.0003
     31 C          18.6535   41.2485   34.8386 C.ar    1  UNL1       -0.0039
     32 C          17.6165   40.8310   34.0309 C.ar    1  UNL1       -0.0178
     33 C          16.1367   41.1260   34.0491 C.3     1  UNL1        0.0526
@<TRIPOS>BOND
     1    12    13    1
     2    13     6    1
     3     6    11   ar
     4     6     7   ar
     5     7     8   ar
     6     8     9   ar
     7     8     4    1
     8     9    10   ar
     9    10    11   ar
    10    10    16    1
    11    11    14    1
    12    14    15    1
    13    16    17    1
    14     4     5    2
    15     5     2    1
    16     2     3    2
    17     2     1    1
    18     1    18    1
    19    18    19    1
    20    19    20    2
    21    19    21    1
    22    21    26   ar
    23    21    22   ar
    24    22    23   ar
    25    23    24   ar
    26    24    33    1
    27    24    25   ar
    28    25    26   ar
    29    25    27    1
    30    27    32   ar
    31    27    28   ar
    32    28    29   ar
    33    29    30   ar
    34    30    31   ar
    35    31    32   ar
    36    32    33    1
@<TRIPOS>MOLECULE
ZINC28700019
 32 34 0 0 0
SMALL
GASTEIGER

@<TRIPOS>ATOM
      1 C          12.3321   37.6786   29.4315 C.ar    1  UNL1        0.1722
      2 C          13.5245   37.8760   30.0971 C.ar    1  UNL1        0.0401
      3 C          14.7251   37.9323   29.3747 C.ar    1  UNL1        0.0039
      4 C          14.7059   37.7874   27.9800 C.ar    1  UNL1        0.0033
      5 C          13.5117   37.5857   27.3264 C.ar    1  UNL1        0.0400
      6 C          12.3223   37.5359   28.0435 C.ar    1  UNL1        0.1724
      7 C          15.9944   38.1420   30.0741 C.2     1  UNL1        0.0107
      8 C          16.0944   39.1170   31.0428 C.2     1  UNL1        0.0708
      9 C          17.3125   39.2189   31.8607 C.2     1  UNL1        0.0091
     10 O          18.3759   38.8257   31.4196 O.co2   1  UNL1       -0.8592
     11 N          17.2506   39.7478   33.0988 N.2     1  UNL1       -0.2367
     12 C          18.4009   39.8439   33.8711 C.ar    1  UNL1        0.1932
     13 N          19.0279   38.8993   34.5452 N.ar    1  UNL1       -0.2189
     14 C          20.1232   39.1619   35.2311 C.ar    1  UNL1        0.1081
     15 C          20.5902   40.4344   35.2402 C.ar    1  UNL1        0.0590
     16 S          19.3787   41.2402   34.2031 S.2     1  UNL1       -0.0466
     17 C          15.0123   40.0312   31.2530 C.1     1  UNL1        0.1007
     18 N          14.1540   40.7563   31.4197 N.1     1  UNL1       -0.1908
     19 O          11.1658   37.6235   30.1285 O.3     1  UNL1       -0.4724
     20 C          10.7061   39.9113   30.7570 C.3     1  UNL1        0.0512
     21 C          11.0375   38.5011   31.2490 C.3     1  UNL1        0.2057
     22 O          11.1472   37.3423   27.3918 O.3     1  UNL1       -0.4684
     23 C          11.1800   36.5148   26.2271 C.3     1  UNL1        0.2526
     24 C          10.5342   37.2574   25.0555 C.3     1  UNL1        0.2525
     25 O          11.5015   38.1121   24.4422 O.3     1  UNL1       -0.4714
     26 C          11.2089   39.4382   24.3913 C.ar    1  UNL1        0.1384
     27 C          10.2948   39.9829   25.2818 C.ar    1  UNL1        0.0369
     28 C           9.9988   41.3309   25.2278 C.ar    1  UNL1        0.0028
     29 C          10.6122   42.1375   24.2868 C.ar    1  UNL1       -0.0041
     30 C          11.5190   41.5963   23.3946 C.ar    1  UNL1       -0.0188
     31 C          11.8232   40.2495   23.4487 C.ar    1  UNL1        0.0326
     32 C          12.1805   42.4768   22.3661 C.3     1  UNL1        0.0311
@<TRIPOS>UNITY_ATOM_ATTR
10 1
charge -1
@<TRIPOS>BOND
     1    20    21    1
     2    21    19    1
     3    19     1    1
     4     1     6   ar
     5     1     2   ar
     6     2     3   ar
     7     3     4   ar
     8     3     7    1
     9     4     5   ar
    10     5     6   ar
    11     6    22    1
    12    22    23    1
    13    23    24    1
    14    24    25    1
    15    25    26    1
    16    26    31   ar
    17    26    27   ar
    18    27    28   ar
    19    28    29   ar
    20    29    30   ar
    21    30    31   ar
    22    30    32    1
    23     7     8    2
    24     8    17    1
    25     8     9    1
    26    17    18    3
    27     9    10    1
    28     9    11    2
    29    11    12    1
    30    12    16   ar
    31    12    13   ar
    32    13    14   ar
    33    14    15   ar
    34    15    16   ar
@<TRIPOS>MOLECULE
ZINC29123020
 33 36 0 0 0
SMALL
GASTEIGER

@<TRIPOS>ATOM
      1 N          25.6479   36.9574   30.6651 N.ar    1  UNL1       -0.2449
      2 C          24.3253   36.7285   30.6919 C.ar    1  UNL1        0.0969
      3 C          23.7230   37.6249   29.8283 C.ar    1  UNL1        0.0384
      4 C          24.8034   38.4379   29.2583 C.ar    1  UNL1        0.1038
      5 N          25.9265   38.0097   29.7886 N.ar    1  UNL1       -0.1689
      6 C          24.6551   39.5378   28.2755 C.ar    1  UNL1        0.0386
      7 C          24.8343   40.8685   28.6658 C.ar    1  UNL1        0.0047
      8 C          24.6852   41.8585   27.7103 C.ar    1  UNL1        0.0207
      9 C          24.3668   41.5033   26.4119 C.ar    1  UNL1        0.0989
     10 N          24.2039   40.2391   26.0731 N.ar    1  UNL1       -0.2423
     11 C          24.3407   39.2621   26.9460 C.ar    1  UNL1        0.1004
     12 C          22.2890   37.7398   29.5390 C.2     1  UNL1        0.0097
     13 C          21.4909   38.4669   30.3537 C.2     1  UNL1        0.0820
     14 C          20.1078   38.5778   30.0747 C.2     1  UNL1        0.3417
     15 O          19.6354   38.0132   29.1058 O.2     1  UNL1       -0.2449
     16 O          19.3128   39.3097   30.8831 O.3     1  UNL1       -0.4404
     17 C          18.8522   38.6821   32.0814 C.3     1  UNL1        0.2370
     18 C          19.1906   39.5507   33.2655 C.ar    1  UNL1        0.0437
     19 C          20.4855   39.5867   33.7489 C.ar    1  UNL1        0.0010
     20 C          20.7968   40.3871   34.8318 C.ar    1  UNL1       -0.0001
     21 C          19.8113   41.1437   35.4382 C.ar    1  UNL1        0.0017
     22 C          18.5158   41.1037   34.9583 C.ar    1  UNL1        0.0239
     23 C          18.2054   40.3071   33.8717 C.ar    1  UNL1        0.1424
     24 N          16.8179   40.2639   33.3580 N.pl3   1  UNL1        0.0575
     25 O          16.4194   41.1353   32.6062 O.2     1  UNL1       -0.1261
     26 O          16.0747   39.3568   33.6871 O.2     1  UNL1       -0.1261
     27 C          26.6473   36.2197   31.4419 C.3     1  UNL1        0.1538
     28 C          27.0787   32.2854   29.8348 C.ar    1  UNL1       -0.0000
     29 C          27.1908   33.3864   29.0066 C.ar    1  UNL1       -0.0003
     30 C          27.0562   34.6598   29.5275 C.ar    1  UNL1       -0.0023
     31 C          26.7997   34.8317   30.8749 C.ar    1  UNL1        0.0021
     32 C          26.6837   33.7306   31.7025 C.ar    1  UNL1       -0.0023
     33 C          26.8231   32.4574   31.1824 C.ar    1  UNL1       -0.0003
@<TRIPOS>BOND
     1    28    33   ar
     2    28    29   ar
     3    29    30   ar
     4    30    31   ar
     5    31    32   ar
     6    31    27    1
     7    32    33   ar
     8    27     1    1
     9     1     5   ar
    10     1     2   ar
    11     2     3   ar
    12     3     4   ar
    13     3    12    1
    14     4     5   ar
    15     4     6    1
    16     6    11   ar
    17     6     7   ar
    18     7     8   ar
    19     8     9   ar
    20     9    10   ar
    21    10    11   ar
    22    12    13    2
    23    13    14    1
    24    14    15    2
    25    14    16    1
    26    16    17    1
    27    17    18    1
    28    18    23   ar
    29    18    19   ar
    30    19    20   ar
    31    20    21   ar
    32    21    22   ar
    33    22    23   ar
    34    23    24    1
    35    24    25    2
    36    24    26    2
@<TRIPOS>MOLECULE
ZINC22240627
 31 34 0 0 0
SMALL
GASTEIGER

@<TRIPOS>ATOM
      1 N          11.9745   37.1098   26.6581 N.am    1  UNL1       -0.5862
      2 C          12.6895   37.4754   27.7946 C.ar    1  UNL1        0.0184
      3 N          13.9907   37.6163   27.9534 N.ar    1  UNL1       -0.1652
      4 N          14.4950   37.9902   29.1775 N.ar    1  UNL1       -0.1363
      5 C          13.6727   38.2062   30.1876 C.ar    1  UNL1        0.1580
      6 S          12.0889   37.8868   29.4259 S.2     1  UNL1       -0.0641
      7 S          14.0391   38.6873   31.8425 S.3     1  UNL1       -0.0819
      8 C          14.8680   40.2905   31.6602 C.3     1  UNL1        0.0904
      9 C          16.1342   40.2973   32.4775 C.ar    1  UNL1       -0.0109
     10 C          17.1224   39.3627   32.2238 C.ar    1  UNL1       -0.0027
     11 C          18.2860   39.3662   32.9649 C.ar    1  UNL1        0.0100
     12 C          18.4605   40.3091   33.9798 C.ar    1  UNL1        0.0684
     13 C          17.4569   41.2461   34.2339 C.ar    1  UNL1        0.0100
     14 C          16.3006   41.2345   33.4816 C.ar    1  UNL1       -0.0027
     15 C          19.6637   40.3156   34.7564 C.1     1  UNL1        0.1004
     16 N          20.6182   40.3208   35.3724 N.1     1  UNL1       -0.1908
     17 C          11.1341   37.9898   26.0787 C.2     1  UNL1        0.1175
     18 O          10.5928   38.8478   26.7512 O.2     1  UNL1       -0.3097
     19 C          10.2656   38.8746   23.8809 C.ar    1  UNL1        0.0601
     20 C          10.2234   38.3852   22.5660 C.ar    1  UNL1        0.0431
     21 C          10.7983   37.1624   22.5781 C.ar    1  UNL1        0.1794
     22 O          11.1923   36.8837   23.8276 O.2     1  UNL1       -0.4494
     23 C          10.8719   37.9133   24.6383 C.ar    1  UNL1        0.1604
     24 C           9.7427   40.2030   24.3634 C.3     1  UNL1        0.2352
     25 O          10.8080   41.1553   24.3841 O.3     1  UNL1       -0.4705
     26 C          11.4903   43.2783   20.9134 C.ar    1  UNL1        0.0002
     27 C          10.2073   43.1748   21.4181 C.ar    1  UNL1        0.0031
     28 C           9.9761   42.4644   22.5801 C.ar    1  UNL1        0.0369
     29 C          11.0327   41.8547   23.2408 C.ar    1  UNL1        0.1391
     30 C          12.3201   41.9649   22.7353 C.ar    1  UNL1        0.0369
     31 C          12.5451   42.6712   21.5696 C.ar    1  UNL1        0.0031
@<TRIPOS>UNITY_ATOM_ATTR
1 1
charge -1
@<TRIPOS>BOND
     1    26    31   ar
     2    26    27   ar
     3    27    28   ar
     4    28    29   ar
     5    29    30   ar
     6    29    25    1
     7    30    31   ar
     8    25    24    1
     9    24    19    1
    10    19    23   ar
    11    19    20   ar
    12    20    21   ar
    13    21    22   ar
    14    22    23   ar
    15    23    17    1
    16    17    18    2
    17    17     1    1
    18     1     2    1
    19     2     6   ar
    20     2     3   ar
    21     3     4   ar
    22     4     5   ar
    23     5     6   ar
    24     5     7    1
    25     7     8    1
    26     8     9    1
    27     9    14   ar
    28     9    10   ar
    29    10    11   ar
    30    11    12   ar
    31    12    13   ar
    32    12    15    1
    33    13    14   ar
    34    15    16    3
@<TRIPOS>MOLECULE
ZINC24738111
 31 33 0 0 0
SMALL
GASTEIGER

@<TRIPOS>ATOM
      1 C          24.4835   37.1863   30.0558 C.ar    1  UNL1        0.1413
      2 N          25.4361   36.8935   29.1898 N.ar    1  UNL1       -0.2133
      3 C          25.5179   37.5398   28.0353 C.ar    1  UNL1        0.1550
      4 C          24.5709   38.5417   27.7498 C.ar    1  UNL1        0.1139
      5 C          23.5756   38.8194   28.6988 C.ar    1  UNL1        0.1159
      6 N          23.5763   38.1151   29.8323 N.ar    1  UNL1       -0.2242
      7 C          24.6669   39.2531   26.4715 C.ar    1  UNL1        0.2691
      8 O          23.8720   40.1268   26.1802 O.2     1  UNL1       -0.2667
      9 N          25.6648   38.9106   25.6259 N.ar    1  UNL1       -0.2466
     10 C          26.5473   37.9509   25.9459 C.ar    1  UNL1        0.3349
     11 O          27.4288   37.6842   25.1525 O.2     1  UNL1       -0.2461
     12 N          26.4961   37.2681   27.1032 N.ar    1  UNL1       -0.2659
     13 C          25.7886   39.6027   24.3407 C.3     1  UNL1        0.1382
     14 C          24.4310   36.4247   31.3552 C.3     1  UNL1        0.0658
     15 C          25.2551   35.1419   31.2282 C.3     1  UNL1        0.0080
     16 C          26.4414   35.2002   32.1927 C.3     1  UNL1        0.0005
     17 C          25.9259   35.2968   33.6300 C.3     1  UNL1        0.0000
     18 C          27.7912   36.7026   34.5171 C.3     1  UNL1        0.0000
     19 C          27.1120   35.3338   34.5958 C.3     1  UNL1        0.0000
     20 S          22.3612   40.0613   28.4030 S.3     1  UNL1       -0.0860
     21 C          20.9029   39.0201   28.1467 C.3     1  UNL1        0.1321
     22 C          21.3367   37.6633   27.5882 C.3     1  UNL1        0.0220
     23 C          20.1923   38.8187   29.4602 C.ar    1  UNL1        0.2463
     24 N          20.5002   39.3733   30.6078 N.ar    1  UNL1       -0.1942
     25 C          19.5993   38.9048   31.4897 C.ar    1  UNL1        0.1809
     26 N          18.8042   38.1041   30.8454 N.ar    1  UNL1       -0.0606
     27 O          19.1242   38.0452   29.6768 O.2     1  UNL1       -0.3365
     28 C          19.5253   39.2462   32.9556 C.3     1  UNL1        0.0773
     29 C          27.4926   36.2302   27.3784 C.3     1  UNL1        0.1120
     30 C          26.9836   34.8840   26.8594 C.3     1  UNL1        0.0247
     31 C          27.0561   33.8448   27.9802 C.3     1  UNL1        0.0021
@<TRIPOS>BOND
     1    18    19    1
     2    19    17    1
     3    17    16    1
     4    16    15    1
     5    15    14    1
     6    14     1    1
     7     1     6   ar
     8     1     2   ar
     9     2     3   ar
    10     3    12   ar
    11     3     4   ar
    12     4     5   ar
    13     4     7   ar
    14     5     6   ar
    15     5    20    1
    16    20    21    1
    17    21    22    1
    18    21    23    1
    19    23    27   ar
    20    23    24   ar
    21    24    25   ar
    22    25    26   ar
    23    25    28    1
    24    26    27   ar
    25     7     8    2
    26     7     9   ar
    27     9    10   ar
    28     9    13    1
    29    10    11    2
    30    10    12   ar
    31    12    29    1
    32    29    30    1
    33    30    31    1
@<TRIPOS>MOLECULE
ZINC29580970
 33 36 0 0 0
SMALL
GASTEIGER

@<TRIPOS>ATOM
      1 C          23.4435   39.4675   27.9355 C.ar    1  UNL1        0.1140
      2 C          23.3524   40.8346   27.7654 C.ar    1  UNL1        0.1084
      3 N          24.4133   41.3964   28.3696 N.ar    1  UNL1       -0.2280
      4 N          25.2152   40.4003   28.9338 N.ar    1  UNL1       -0.1648
      5 C          24.6730   39.2268   28.6986 C.ar    1  UNL1        0.1091
      6 C          25.2030   37.9095   29.1239 C.ar    1  UNL1        0.0228
      7 C          26.1578   37.2567   28.3454 C.ar    1  UNL1        0.0049
      8 C          26.6511   36.0307   28.7422 C.ar    1  UNL1        0.0401
      9 C          26.1993   35.4452   29.9154 C.ar    1  UNL1        0.1724
     10 C          25.2453   36.0924   30.6968 C.ar    1  UNL1        0.1724
     11 C          24.7517   37.3240   30.3060 C.ar    1  UNL1        0.0416
     12 O          24.8036   35.5165   31.8469 O.3     1  UNL1       -0.4684
     13 C          25.3618   35.9995   33.0704 C.3     1  UNL1        0.2526
     14 O          26.6881   34.2373   30.3031 O.3     1  UNL1       -0.4684
     15 C          27.1230   33.3513   29.2697 C.3     1  UNL1        0.2526
     16 C          24.6783   42.7711   28.4210 C.ar    1  UNL1        0.0829
     17 C          25.9899   43.2269   28.4320 C.ar    1  UNL1        0.0191
     18 C          26.2479   44.5830   28.4770 C.ar    1  UNL1        0.0015
     19 C          25.2016   45.4861   28.5227 C.ar    1  UNL1        0.0001
     20 C          23.8944   45.0352   28.5171 C.ar    1  UNL1        0.0015
     21 C          23.6299   43.6805   28.4666 C.ar    1  UNL1        0.0191
     22 C          22.4986   38.4531   27.4435 C.2     1  UNL1        0.3448
     23 O          22.6768   37.9310   26.3605 O.2     1  UNL1       -0.2448
     24 O          21.4321   38.1065   28.1913 O.3     1  UNL1       -0.4350
     25 C          20.5074   39.1664   28.5518 C.3     1  UNL1        0.2957
     26 C          19.3644   38.8200   31.9374 C.ar    1  UNL1        0.1806
     27 N          20.1719   39.4075   31.0364 N.ar    1  UNL1       -0.1917
     28 C          19.8789   38.8526   29.8851 C.ar    1  UNL1        0.2810
     29 O          18.9205   37.9516   30.1209 O.2     1  UNL1       -0.3334
     30 N          18.6403   37.9486   31.3011 N.ar    1  UNL1       -0.0605
     31 C          19.3127   39.1144   33.4144 C.3     1  UNL1        0.0692
     32 C          20.5265   40.3276   35.2303 C.3     1  UNL1        0.0005
     33 C          20.2261   40.3005   33.7304 C.3     1  UNL1        0.0081
@<TRIPOS>BOND
     1    32    33    1
     2    33    31    1
     3    31    26    1
     4    26    30   ar
     5    26    27   ar
     6    27    28   ar
     7    28    29   ar
     8    28    25    1
     9    29    30   ar
    10    25    24    1
    11    24    22    1
    12    22    23    2
    13    22     1    1
    14     1     5   ar
    15     1     2   ar
    16     2     3   ar
    17     3     4   ar
    18     3    16    1
    19     4     5   ar
    20     5     6    1
    21     6    11   ar
    22     6     7   ar
    23     7     8   ar
    24     8     9   ar
    25     9    10   ar
    26     9    14    1
    27    10    11   ar
    28    10    12    1
    29    12    13    1
    30    14    15    1
    31    16    21   ar
    32    16    17   ar
    33    17    18   ar
    34    18    19   ar
    35    19    20   ar
    36    20    21   ar
@<TRIPOS>MOLECULE
ZINC10615829
 33 36 0 0 0
SMALL
GASTEIGER

@<TRIPOS>ATOM
      1 O          22.0847   38.8218   27.0462 O.3     1  UNL1       -0.4418
      2 C          21.6092   37.7035   27.6164 C.2     1  UNL1        0.3179
      3 O          20.7797   37.0384   27.0424 O.2     1  UNL1       -0.2501
      4 C          22.1100   37.2775   28.9724 C.3     1  UNL1        0.1194
      5 C          21.9850   38.4459   29.9523 C.3     1  UNL1        0.0997
      6 C          20.5820   38.4937   30.5005 C.ar    1  UNL1        0.2371
      7 N          20.1294   39.3222   31.4086 N.ar    1  UNL1       -0.1907
      8 C          18.8287   38.9957   31.5821 C.ar    1  UNL1        0.2033
      9 N          18.5705   37.9979   30.7770 N.ar    1  UNL1       -0.0560
     10 O          19.5641   37.7026   30.1472 O.2     1  UNL1       -0.3370
     11 C          17.8735   39.6469   32.5122 C.ar    1  UNL1        0.0392
     12 C          16.5155   39.3416   32.4461 C.ar    1  UNL1        0.0055
     13 C          15.6315   39.9459   33.3160 C.ar    1  UNL1        0.0297
     14 C          16.0910   40.8631   34.2475 C.ar    1  UNL1        0.1401
     15 C          17.4398   41.1735   34.3132 C.ar    1  UNL1        0.0297
     16 C          18.3313   40.5700   33.4506 C.ar    1  UNL1        0.0055
     17 F          15.2213   41.4562   35.0945 F       1  UNL1       -0.2042
     18 C          23.5141   38.8785   26.7977 C.3     1  UNL1        0.2540
     19 C          27.4347   41.3346   28.7878 C.3     1  UNL1        0.0313
     20 C          25.9818   41.2736   28.3926 C.ar    1  UNL1       -0.0129
     21 C          25.1249   42.3652   28.6130 C.ar    1  UNL1        0.0139
     22 C          25.5921   43.5495   29.2085 C.ar    1  UNL1        0.0012
     23 C          24.7332   44.5868   29.4075 C.ar    1  UNL1        0.0001
     24 C          23.3964   44.4903   29.0266 C.ar    1  UNL1        0.0015
     25 C          22.9106   43.3583   28.4470 C.ar    1  UNL1        0.0191
     26 C          23.7649   42.2649   28.2253 C.ar    1  UNL1        0.0807
     27 N          23.3095   41.1444   27.6524 N.ar    1  UNL1       -0.2458
     28 C          24.0874   40.1143   27.4422 C.ar    1  UNL1        0.1086
     29 C          25.4480   40.1352   27.7981 C.ar    1  UNL1        0.0888
     30 C          26.3021   38.9585   27.5432 C.2     1  UNL1        0.3423
     31 O          26.9443   38.8853   26.5147 O.2     1  UNL1       -0.2449
     32 O          26.3694   37.9655   28.4513 O.3     1  UNL1       -0.4413
     33 C          27.6750   37.3759   28.6879 C.3     1  UNL1        0.2560
@<TRIPOS>BOND
     1    19    20    1
     2    20    29   ar
     3    20    21   ar
     4    21    26   ar
     5    21    22   ar
     6    22    23   ar
     7    23    24   ar
     8    24    25   ar
     9    25    26   ar
    10    26    27   ar
    11    27    28   ar
    12    28    29   ar
    13    28    18    1
    14    29    30    1
    15    30    31    2
    16    30    32    1
    17    32    33    1
    18    18     1    1
    19     1     2    1
    20     2     3    2
    21     2     4    1
    22     4     5    1
    23     5     6    1
    24     6    10   ar
    25     6     7   ar
    26     7     8   ar
    27     8     9   ar
    28     8    11    1
    29     9    10   ar
    30    11    16   ar
    31    11    12   ar
    32    12    13   ar
    33    13    14   ar
    34    14    15   ar
    35    14    17    1
    36    15    16   ar
@<TRIPOS>MOLECULE
ZINC27590945
 31 33 0 0 0
SMALL
GASTEIGER

@<TRIPOS>ATOM
      1 C          24.3929   37.1588   30.1641 C.ar    1  UNL1        0.0003
      2 C          25.5039   37.6921   29.5028 C.ar    1  UNL1        0.0014
      3 C          26.7593   37.1755   29.7448 C.ar    1  UNL1        0.0199
      4 C          26.9214   36.1319   30.6394 C.ar    1  UNL1        0.1222
      5 C          25.8262   35.5952   31.2938 C.ar    1  UNL1        0.0199
      6 C          24.5651   36.1043   31.0665 C.ar    1  UNL1        0.0014
      7 S          28.5296   35.4784   30.9414 S.O2    1  UNL1        0.0633
      8 O          28.5286   34.9991   32.2791 O.2     1  UNL1       -0.1528
      9 O          29.4566   36.4524   30.4818 O.2     1  UNL1       -0.1528
     10 N          28.7115   34.1539   29.9641 N.3     1  UNL1       -0.1555
     11 C          29.3146   34.2811   28.6690 C.3     1  UNL1        0.0958
     12 C          28.3550   34.6199   27.5013 C.3     1  UNL1        0.0191
     13 C          27.0432   33.8084   27.6366 C.3     1  UNL1        0.0015
     14 C          27.3264   32.4148   28.1176 C.3     1  UNL1        0.0015
     15 C          27.0743   32.4455   29.6212 C.3     1  UNL1        0.0191
     16 C          28.2470   32.8004   30.4195 C.3     1  UNL1        0.0958
     17 C          22.2067   37.0609   29.0766 C.2     1  UNL1        0.0819
     18 C          23.0495   37.7040   29.9111 C.2     1  UNL1        0.0067
     19 C          20.8719   37.6025   28.8253 C.2     1  UNL1        0.3418
     20 O          20.5946   38.0529   27.7300 O.2     1  UNL1       -0.2449
     21 O          19.9479   37.6028   29.8082 O.3     1  UNL1       -0.4395
     22 C          19.5728   38.8725   30.3460 C.3     1  UNL1        0.2471
     23 C          20.3519   39.1297   31.6373 C.3     1  UNL1        0.0578
     24 C          16.2019   39.0994   31.5600 C.ar    1  UNL1        0.1806
     25 N          17.5214   39.2762   31.7507 N.ar    1  UNL1       -0.1919
     26 C          18.0951   38.8763   30.6414 C.ar    1  UNL1        0.2766
     27 O          17.1192   38.4671   29.8251 O.2     1  UNL1       -0.3336
     28 N          16.0438   38.6031   30.3696 N.ar    1  UNL1       -0.0605
     29 C          15.1080   39.4140   32.5476 C.3     1  UNL1        0.0692
     30 C          15.9499   40.9877   34.2962 C.3     1  UNL1        0.0005
     31 C          15.2041   40.8830   32.9643 C.3     1  UNL1        0.0081
@<TRIPOS>BOND
     1    30    31    1
     2    31    29    1
     3    29    24    1
     4    24    28   ar
     5    24    25   ar
     6    25    26   ar
     7    26    27   ar
     8    26    22    1
     9    27    28   ar
    10    22    23    1
    11    22    21    1
    12    21    19    1
    13    19    20    2
    14    19    17    1
    15    17    18    2
    16    18     1    1
    17     1     6   ar
    18     1     2   ar
    19     2     3   ar
    20     3     4   ar
    21     4     5   ar
    22     4     7    1
    23     5     6   ar
    24     7     8    2
    25     7     9    2
    26     7    10    1
    27    10    16    1
    28    10    11    1
    29    11    12    1
    30    12    13    1
    31    13    14    1
    32    14    15    1
    33    15    16    1
@<TRIPOS>MOLECULE
ZINC24657145
 31 33 0 0 0
SMALL
GASTEIGER

@<TRIPOS>ATOM
      1 C          26.0392   38.4122   29.4445 C.2     1  UNL1       -0.0021
      2 C          24.9075   38.8463   28.8568 C.2     1  UNL1        0.0016
      3 C          24.6772   40.2832   28.6817 C.ar    1  UNL1        0.1067
      4 N          25.4772   41.2916   28.9709 N.ar    1  UNL1       -0.2387
      5 C          25.1340   42.5699   28.7558 C.ar    1  UNL1        0.0878
      6 C          25.8946   43.7349   29.0195 C.ar    1  UNL1        0.0196
      7 C          25.3980   44.9693   28.7400 C.ar    1  UNL1        0.0016
      8 C          24.1350   45.1399   28.1900 C.ar    1  UNL1        0.0006
      9 C          23.3587   44.0286   27.9173 C.ar    1  UNL1        0.0080
     10 C          23.8506   42.7770   28.1947 C.ar    1  UNL1        0.0485
     11 S          23.2438   41.1171   28.0143 S.2     1  UNL1       -0.0668
     12 C          27.0682   34.8328   28.9710 C.ar    1  UNL1        0.1756
     13 C          26.8850   36.1832   28.7370 C.ar    1  UNL1        0.0402
     14 C          26.2361   36.9745   29.6901 C.ar    1  UNL1        0.0060
     15 C          25.7797   36.3977   30.8796 C.ar    1  UNL1        0.0402
     16 C          25.9620   35.0458   31.1047 C.ar    1  UNL1        0.1756
     17 C          26.6081   34.2610   30.1538 C.ar    1  UNL1        0.2115
     18 C          27.0405   33.8880   26.7887 C.3     1  UNL1        0.2526
     19 O          27.6992   34.0625   28.0448 O.3     1  UNL1       -0.4683
     20 O          25.5148   34.4833   32.2593 O.3     1  UNL1       -0.4683
     21 C          25.7592   35.2035   33.4691 C.3     1  UNL1        0.2526
     22 O          26.7903   32.9327   30.3808 O.3     1  UNL1       -0.4174
     23 C          27.9354   32.5569   31.1488 C.3     1  UNL1        0.5088
     24 F          28.7840   33.6601   31.2910 F       1  UNL1       -0.1550
     25 F          27.5259   32.1177   32.4123 F       1  UNL1       -0.1550
     26 C          23.8781   37.8546   28.3792 C.3     1  UNL1        0.0288
     27 C          22.9054   37.5410   29.5178 C.3     1  UNL1        0.0106
     28 C          21.5489   38.1835   29.2213 C.3     1  UNL1        0.0421
     29 C          20.9038   37.4797   28.0553 C.2     1  UNL1        0.0503
     30 O          20.5175   36.3412   28.1755 O.co2   1  UNL1       -0.5492
     31 O          20.7583   38.1176   26.8833 O.co2   1  UNL1       -0.5492
@<TRIPOS>UNITY_ATOM_ATTR
31 1
charge -1
@<TRIPOS>BOND
     1    18    19    1
     2    19    12    1
     3    12    17   ar
     4    12    13   ar
     5    13    14   ar
     6    14    15   ar
     7    14     1    1
     8    15    16   ar
     9    16    17   ar
    10    16    20    1
    11    17    22    1
    12    22    23    1
    13    23    24    1
    14    23    25    1
    15    20    21    1
    16     1     2    2
    17     2    26    1
    18     2     3    1
    19    26    27    1
    20    27    28    1
    21    28    29    1
    22    29    30   ar
    23    29    31   ar
    24     3    11   ar
    25     3     4   ar
    26     4     5   ar
    27     5    10   ar
    28     5     6   ar
    29     6     7   ar
    30     7     8   ar
    31     8     9   ar
    32     9    10   ar
    33    10    11   ar
@<TRIPOS>MOLECULE
ZINC20160605
 29 30 0 0 0
SMALL
GASTEIGER

@<TRIPOS>ATOM
      1 C          18.6046   39.0903   32.4980 C.ar    1  UNL1        0.0555
      2 C          17.2420   39.3421   32.5342 C.ar    1  UNL1       -0.0047
      3 C          16.5410   39.2178   31.3645 C.ar    1  UNL1        0.0996
      4 S          17.8037   38.7427   30.1990 S.2     1  UNL1       -0.1056
      5 C          19.1682   38.7327   31.2677 C.ar    1  UNL1       -0.0851
      6 C          16.5558   39.7382   33.8161 C.3     1  UNL1        0.0319
      7 C          19.4289   39.2007   33.7068 C.2     1  UNL1        0.3396
      8 O          19.4358   38.2989   34.5224 O.2     1  UNL1       -0.2450
      9 O          20.1788   40.3022   33.9130 O.3     1  UNL1       -0.4455
     10 C          19.1628   41.6296   35.6840 C.3     1  UNL1        0.0513
     11 C          20.3428   40.7400   35.2878 C.3     1  UNL1        0.2089
     12 C          15.1126   39.4242   31.1296 C.2     1  UNL1        0.3470
     13 O          14.6934   40.5363   30.8697 O.2     1  UNL1       -0.2443
     14 O          14.2595   38.3813   31.2010 O.3     1  UNL1       -0.4423
     15 C          13.5479   38.0425   30.0089 C.3     1  UNL1        0.2407
     16 C          14.4827   37.3029   29.0498 C.3     1  UNL1        0.1895
     17 O          14.1058   37.5895   27.7016 O.3     1  UNL1       -0.3471
     18 C          12.7061   37.4527   27.4477 C.3     1  UNL1        0.1743
     19 N          20.4852   38.4414   30.9776 N.am    1  UNL1       -0.6054
     20 C          20.8684   38.2552   29.6990 C.2     1  UNL1        0.0847
     21 O          20.2659   37.4710   28.9919 O.2     1  UNL1       -0.3128
     22 C          22.0191   39.0032   29.1573 C.ar    1  UNL1        0.0535
     23 C          21.8175   40.2116   28.4814 C.ar    1  UNL1        0.1421
     24 C          22.9018   40.9084   27.9818 C.ar    1  UNL1        0.0297
     25 C          24.1815   40.4081   28.1392 C.ar    1  UNL1        0.0032
     26 C          24.3879   39.2110   28.8015 C.ar    1  UNL1        0.0116
     27 C          23.3163   38.5055   29.3115 C.ar    1  UNL1        0.0610
     28 CL         23.5792   37.0043   30.1428 Cl      1  UNL1       -0.0821
     29 F          20.5674   40.6987   28.3224 F       1  UNL1       -0.2041
@<TRIPOS>UNITY_ATOM_ATTR
19 1
charge -1
@<TRIPOS>BOND
     1    10    11    1
     2    11     9    1
     3     9     7    1
     4     7     8    2
     5     7     1    1
     6     1     5   ar
     7     1     2   ar
     8     2     3   ar
     9     2     6    1
    10     3     4   ar
    11     3    12    1
    12     4     5   ar
    13     5    19    1
    14    19    20    1
    15    20    21    2
    16    20    22    1
    17    22    27   ar
    18    22    23   ar
    19    23    24   ar
    20    23    29    1
    21    24    25   ar
    22    25    26   ar
    23    26    27   ar
    24    27    28    1
    25    12    13    2
    26    12    14    1
    27    14    15    1
    28    15    16    1
    29    16    17    1
    30    17    18    1
@<TRIPOS>MOLECULE
ZINC29883235
 30 32 0 0 0
SMALL
GASTEIGER

@<TRIPOS>ATOM
      1 C          24.6968   37.8632   25.8621 C.3     1  UNL1        0.1116
      2 C          23.5713   37.7693   26.8598 C.ar    1  UNL1       -0.0132
      3 C          23.8416   37.8455   28.2138 C.ar    1  UNL1       -0.0056
      4 C          22.8125   37.7601   29.1309 C.ar    1  UNL1       -0.0241
      5 C          21.5047   37.5975   28.6917 C.ar    1  UNL1       -0.1123
      6 C          21.2368   37.5213   27.3308 C.ar    1  UNL1       -0.0241
      7 C          22.2706   37.6074   26.4192 C.ar    1  UNL1       -0.0056
      8 N          20.4616   37.5103   29.6164 N.pl3   1  UNL1       -0.5354
      9 S          19.5406   38.8446   29.9540 S.O2    1  UNL1       -0.0520
     10 O          20.1862   39.9503   29.3377 O.2     1  UNL1       -0.1837
     11 O          18.1942   38.4918   29.6674 O.2     1  UNL1       -0.1837
     12 C          19.6314   39.1137   31.6930 C.ar    1  UNL1        0.1187
     13 C          20.7268   39.2191   32.4844 C.ar    1  UNL1        0.0241
     14 C          20.5568   39.4335   33.8393 C.ar    1  UNL1        0.0088
     15 C          19.2996   39.5318   34.3366 C.ar    1  UNL1        0.0367
     16 S          18.3047   39.3259   32.8686 S.2     1  UNL1       -0.0697
     17 N          25.9091   40.0180   25.9377 N.am    1  UNL1       -0.2752
     18 C          24.8803   39.2998   25.4455 C.2     1  UNL1        0.2303
     19 O          24.1022   39.8097   24.6674 O.2     1  UNL1       -0.2745
     20 C          26.8490   39.4021   26.8777 C.3     1  UNL1        0.0937
     21 C          29.1069   40.1095   27.6802 C.3     1  UNL1        0.0018
     22 C          28.2824   39.7244   26.4503 C.3     1  UNL1        0.0215
     23 C          26.0874   41.4146   25.5328 C.3     1  UNL1        0.1201
     24 C          25.7975   42.3180   26.7037 C.ar    1  UNL1       -0.0024
     25 C          26.7749   43.1749   27.1741 C.ar    1  UNL1       -0.0029
     26 C          26.5075   44.0067   28.2454 C.ar    1  UNL1       -0.0045
     27 C          25.2660   43.9748   28.8522 C.ar    1  UNL1       -0.0219
     28 C          24.2901   43.1145   28.3847 C.ar    1  UNL1       -0.0045
     29 C          24.5560   42.2857   27.3107 C.ar    1  UNL1       -0.0029
     30 C          24.9760   44.8782   30.0230 C.3     1  UNL1        0.0310
@<TRIPOS>UNITY_ATOM_ATTR
8 1
charge -1
@<TRIPOS>BOND
     1    21    22    1
     2    22    20    1
     3    20    17    1
     4    17    23    1
     5    17    18   am
     6    23    24    1
     7    24    29   ar
     8    24    25   ar
     9    25    26   ar
    10    26    27   ar
    11    27    28   ar
    12    27    30    1
    13    28    29   ar
    14    18    19    2
    15    18     1    1
    16     1     2    1
    17     2     7   ar
    18     2     3   ar
    19     3     4   ar
    20     4     5   ar
    21     5     6   ar
    22     5     8    1
    23     6     7   ar
    24     8     9    1
    25     9    10    2
    26     9    11    2
    27     9    12    1
    28    12    16   ar
    29    12    13   ar
    30    13    14   ar
    31    14    15   ar
    32    15    16   ar
@<TRIPOS>MOLECULE
ZINC12427820
 29 31 0 0 0
SMALL
GASTEIGER

@<TRIPOS>ATOM
      1 C          12.1877   38.0435   30.5954 C.3     1  UNL1        0.1337
      2 N          13.5517   38.2812   30.1165 N.ar    1  UNL1       -0.2911
      3 C          14.5205   39.0324   30.7227 C.ar    1  UNL1        0.1547
      4 N          15.5788   38.9858   29.9640 N.ar    1  UNL1       -0.1319
      5 N          15.3501   38.2545   28.9321 N.ar    1  UNL1       -0.1224
      6 C          14.1194   37.7988   28.9724 C.ar    1  UNL1        0.1934
      7 S          13.3469   36.7608   27.7764 S.3     1  UNL1       -0.0673
      8 C          11.9625   37.8197   27.2885 C.3     1  UNL1        0.1340
      9 C          11.3769   37.3164   25.9943 C.2     1  UNL1        0.1843
     10 O          11.1029   36.1419   25.8690 O.2     1  UNL1       -0.2904
     11 C          11.1378   38.2505   24.8824 C.ar    1  UNL1        0.0357
     12 C          11.4417   39.6079   25.0271 C.ar    1  UNL1        0.0046
     13 C          11.2196   40.4759   23.9789 C.ar    1  UNL1        0.0242
     14 C          10.6868   40.0089   22.7900 C.ar    1  UNL1        0.1429
     15 C          10.3785   38.6679   22.6409 C.ar    1  UNL1        0.0242
     16 C          10.6001   37.7864   23.6778 C.ar    1  UNL1        0.0046
     17 N          10.4458   40.9483   21.6720 N.pl3   1  UNL1        0.0577
     18 O          10.6709   40.6018   20.5262 O.2     1  UNL1       -0.1261
     19 O          10.0225   42.0678   21.8978 O.2     1  UNL1       -0.1261
     20 C          14.3868   39.7809   32.0238 C.3     1  UNL1        0.1235
     21 S          15.7907   39.3785   33.0998 S.3     1  UNL1       -0.1273
     22 C          17.0307   40.6385   32.6930 C.3     1  UNL1        0.0850
     23 C          18.2349   40.4637   33.5820 C.ar    1  UNL1       -0.0007
     24 C          18.4068   41.2827   34.6822 C.ar    1  UNL1       -0.0026
     25 C          19.5144   41.1266   35.4942 C.ar    1  UNL1       -0.0002
     26 C          20.4506   40.1505   35.2070 C.ar    1  UNL1        0.0008
     27 C          20.2799   39.3310   34.1075 C.ar    1  UNL1        0.0111
     28 C          19.1715   39.4872   33.2940 C.ar    1  UNL1        0.0545
     29 CL         18.9566   38.4586   31.9121 Cl      1  UNL1       -0.0825
@<TRIPOS>BOND
     1     1     2    1
     2     2     6   ar
     3     2     3   ar
     4     3     4   ar
     5     3    20    1
     6     4     5   ar
     7     5     6   ar
     8     6     7    1
     9     7     8    1
    10     8     9    1
    11     9    10    2
    12     9    11    1
    13    11    16   ar
    14    11    12   ar
    15    12    13   ar
    16    13    14   ar
    17    14    15   ar
    18    14    17    1
    19    15    16   ar
    20    17    18    2
    21    17    19    2
    22    20    21    1
    23    21    22    1
    24    22    23    1
    25    23    28   ar
    26    23    24   ar
    27    24    25   ar
    28    25    26   ar
    29    26    27   ar
    30    27    28   ar
    31    28    29    1
@<TRIPOS>MOLECULE
ZINC17176978
 33 35 0 0 0
SMALL
GASTEIGER

@<TRIPOS>ATOM
      1 C          12.5935   37.3595   27.8040 C.ar    1  UNL1        0.0758
      2 C          13.9052   37.5569   27.3633 C.ar    1  UNL1        0.0080
      3 C          14.8826   37.9264   28.2602 C.ar    1  UNL1        0.0193
      4 C          14.5660   38.1027   29.6030 C.ar    1  UNL1        0.0824
      5 C          13.2630   37.9021   30.0460 C.ar    1  UNL1        0.0193
      6 C          12.2792   37.5381   29.1540 C.ar    1  UNL1        0.0080
      7 N          15.5613   38.4770   30.5107 N.ar    1  UNL1       -0.2343
      8 C          15.3606   39.0206   31.7394 C.ar    1  UNL1        0.0580
      9 C          16.5751   39.2347   32.2955 C.ar    1  UNL1        0.0072
     10 C          17.5486   38.8161   31.3813 C.ar    1  UNL1        0.0765
     11 N          16.9434   38.3577   30.3158 N.ar    1  UNL1       -0.1701
     12 C          19.0397   38.8789   31.5901 C.3     1  UNL1        0.0536
     13 C          14.0267   39.3293   32.3689 C.3     1  UNL1        0.0518
     14 C          16.8343   39.8258   33.6573 C.3     1  UNL1        0.0405
     15 C          17.3335   41.2638   33.5024 C.3     1  UNL1        0.1143
     16 C          18.5989   41.4450   34.3005 C.2     1  UNL1        0.3174
     17 O          19.1639   42.5130   34.3031 O.2     1  UNL1       -0.2501
     18 O          19.0984   40.4198   35.0086 O.3     1  UNL1       -0.4444
     19 C          20.5188   40.1528   34.8696 C.3     1  UNL1        0.2556
     20 C          11.5433   36.9641   26.8461 C.2     1  UNL1        0.3416
     21 O          10.7298   36.1154   27.1527 O.2     1  UNL1       -0.2449
     22 O          11.4863   37.5443   25.6314 O.3     1  UNL1       -0.4368
     23 C          10.3901   37.1515   24.7640 C.3     1  UNL1        0.2769
     24 C           9.5149   38.3468   24.4878 C.2     1  UNL1        0.2170
     25 O           8.3531   38.3408   24.8351 O.2     1  UNL1       -0.2874
     26 C          11.1159   41.7319   22.4952 C.ar    1  UNL1       -0.0222
     27 C          11.1069   40.5010   21.8624 C.ar    1  UNL1       -0.0042
     28 C          10.5883   39.3959   22.5034 C.ar    1  UNL1        0.0026
     29 C          10.0702   39.5213   23.7964 C.ar    1  UNL1        0.0384
     30 C          10.0772   40.7697   24.4268 C.ar    1  UNL1        0.0026
     31 C          10.6049   41.8642   23.7747 C.ar    1  UNL1       -0.0042
     32 C          10.9970   43.1016   20.4314 C.3     1  UNL1        0.0050
     33 C          11.6854   42.9344   21.7875 C.3     1  UNL1        0.0264
@<TRIPOS>BOND
     1    32    33    1
     2    33    26    1
     3    26    31   ar
     4    26    27   ar
     5    27    28   ar
     6    28    29   ar
     7    29    30   ar
     8    29    24    1
     9    30    31   ar
    10    24    25    2
    11    24    23    1
    12    23    22    1
    13    22    20    1
    14    20    21    2
    15    20     1    1
    16     1     6   ar
    17     1     2   ar
    18     2     3   ar
    19     3     4   ar
    20     4     5   ar
    21     4     7    1
    22     5     6   ar
    23     7    11   ar
    24     7     8   ar
    25     8     9   ar
    26     8    13    1
    27     9    10   ar
    28     9    14    1
    29    10    11   ar
    30    10    12    1
    31    14    15    1
    32    15    16    1
    33    16    17    2
    34    16    18    1
    35    18    19    1
@<TRIPOS>MOLECULE
ZINC27835814
 33 36 0 0 0
SMALL
GASTEIGER

@<TRIPOS>ATOM
      1 C          22.8916   38.7041   28.3103 C.3     1  UNL1        0.1722
      2 C          23.1618   40.1829   28.4156 C.ar    1  UNL1        0.0097
      3 C          22.1081   41.0755   28.4762 C.ar    1  UNL1       -0.0016
      4 C          22.3560   42.4316   28.5777 C.ar    1  UNL1       -0.0002
      5 C          23.6577   42.8960   28.6080 C.ar    1  UNL1       -0.0000
      6 C          24.7115   42.0037   28.5421 C.ar    1  UNL1       -0.0002
      7 C          24.4635   40.6472   28.4459 C.ar    1  UNL1       -0.0016
      8 C          23.7679   37.9624   29.2865 C.ar    1  UNL1        0.0097
      9 C          23.5283   38.0621   30.6443 C.ar    1  UNL1       -0.0016
     10 C          24.3291   37.3779   31.5395 C.ar    1  UNL1       -0.0002
     11 C          25.3761   36.6025   31.0776 C.ar    1  UNL1       -0.0000
     12 C          25.6189   36.5070   29.7200 C.ar    1  UNL1       -0.0002
     13 C          24.8149   37.1870   28.8245 C.ar    1  UNL1       -0.0016
     14 C          21.4216   38.4299   28.6342 C.3     1  UNL1        0.2372
     15 C          20.9632   37.2032   27.8885 C.2     1  UNL1        0.0931
     16 O          20.9855   36.1234   28.4302 O.co2   1  UNL1       -0.5454
     17 O          20.5302   37.3101   26.6225 O.co2   1  UNL1       -0.5454
     18 O          21.2755   38.2155   30.0395 O.3     1  UNL1       -0.4415
     19 C          18.8110   39.5833   33.8814 C.3     1  UNL1        0.0523
     20 C          18.8656   39.1849   32.4290 C.ar    1  UNL1        0.0655
     21 C          17.7064   39.1372   31.6704 C.ar    1  UNL1        0.0356
     22 C          17.8020   38.7658   30.3388 C.ar    1  UNL1        0.1049
     23 N          18.9892   38.4699   29.8353 N.ar    1  UNL1       -0.1927
     24 C          20.0761   38.5255   30.5875 C.ar    1  UNL1        0.3199
     25 N          20.0197   38.8714   31.8636 N.ar    1  UNL1       -0.1986
     26 O          23.1773   38.2611   26.9820 O.3     1  UNL1       -0.3417
     27 C          23.0713   39.2863   25.9922 C.3     1  UNL1        0.1694
     28 C          24.3383   39.3305   25.1773 C.ar    1  UNL1        0.0073
     29 C          24.4226   40.1606   24.0751 C.ar    1  UNL1       -0.0019
     30 C          25.5865   40.2047   23.3306 C.ar    1  UNL1       -0.0002
     31 C          26.6625   39.4113   23.6823 C.ar    1  UNL1       -0.0000
     32 C          26.5762   38.5771   24.7811 C.ar    1  UNL1       -0.0002
     33 C          25.4142   38.5368   25.5288 C.ar    1  UNL1       -0.0019
@<TRIPOS>UNITY_ATOM_ATTR
17 1
charge -1
@<TRIPOS>BOND
     1    19    20    1
     2    20    25   ar
     3    20    21   ar
     4    21    22   ar
     5    22    23   ar
     6    23    24   ar
     7    24    25   ar
     8    24    18    1
     9    18    14    1
    10    14    15    1
    11    14     1    1
    12    15    16   ar
    13    15    17   ar
    14     1     2    1
    15     1     8    1
    16     1    26    1
    17     2     7   ar
    18     2     3   ar
    19     3     4   ar
    20     4     5   ar
    21     5     6   ar
    22     6     7   ar
    23     8    13   ar
    24     8     9   ar
    25     9    10   ar
    26    10    11   ar
    27    11    12   ar
    28    12    13   ar
    29    26    27    1
    30    27    28    1
    31    28    33   ar
    32    28    29   ar
    33    29    30   ar
    34    30    31   ar
    35    31    32   ar
    36    32    33   ar
@<TRIPOS>MOLECULE
ZINC13828424
 33 36 0 0 0
SMALL
GASTEIGER

@<TRIPOS>ATOM
      1 C          20.2279   38.3025   29.7814 C.2     1  UNL1        0.2160
      2 O          19.6687   37.4888   29.0721 O.2     1  UNL1       -0.2849
      3 C          21.5574   38.8285   29.3985 C.ar    1  UNL1        0.1234
      4 C          22.7064   38.0186   29.5463 C.ar    1  UNL1        0.0431
      5 C          23.9154   38.5125   29.1916 C.ar    1  UNL1        0.1037
      6 N          23.9978   39.7842   28.6983 N.ar    1  UNL1       -0.2107
      7 C          22.8594   40.5447   28.5678 C.ar    1  UNL1        0.1654
      8 N          21.6682   40.0523   28.9140 N.ar    1  UNL1       -0.2232
      9 C          23.2489   41.7746   28.0479 C.ar    1  UNL1        0.0596
     10 C          24.6317   41.7380   27.8702 C.ar    1  UNL1        0.1044
     11 N          25.0798   40.5546   28.2566 N.ar    1  UNL1       -0.1637
     12 C          25.4639   42.8449   27.3364 C.ar    1  UNL1        0.0196
     13 C          25.3295   44.1319   27.8533 C.ar    1  UNL1        0.0039
     14 C          26.1085   45.1571   27.3574 C.ar    1  UNL1        0.0297
     15 C          27.0162   44.9103   26.3400 C.ar    1  UNL1        0.1401
     16 C          27.1492   43.6332   25.8196 C.ar    1  UNL1        0.0297
     17 C          26.3775   42.6013   26.3130 C.ar    1  UNL1        0.0039
     18 F          27.7733   45.9180   25.8538 F       1  UNL1       -0.2042
     19 C          19.7498   39.5915   33.2723 C.ar    1  UNL1       -0.0219
     20 C          18.3671   39.6353   33.3596 C.ar    1  UNL1       -0.0012
     21 C          17.5863   39.2477   32.2888 C.ar    1  UNL1        0.0367
     22 C          18.1826   38.8108   31.1154 C.ar    1  UNL1        0.1424
     23 C          19.5821   38.7653   31.0223 C.ar    1  UNL1        0.0741
     24 C          20.3601   39.1614   32.1152 C.ar    1  UNL1        0.0020
     25 C          19.8431   41.0887   35.2468 C.3     1  UNL1        0.0050
     26 C          20.5892   40.0172   34.4493 C.3     1  UNL1        0.0264
     27 O          17.4169   38.4240   30.0649 O.3     1  UNL1       -0.4637
     28 C          16.1255   39.0243   29.9477 C.3     1  UNL1        0.3141
     29 C          15.1025   37.9602   29.6441 C.2     1  UNL1        0.3620
     30 O          15.3581   37.0851   28.8511 O.2     1  UNL1       -0.2459
     31 O          13.9073   37.9845   30.2546 O.3     1  UNL1       -0.4459
     32 C          13.6881   39.0346   31.2332 C.3     1  UNL1        0.2087
     33 C          12.2067   39.0763   31.6133 C.3     1  UNL1        0.0513
@<TRIPOS>BOND
     1    25    26    1
     2    26    19    1
     3    19    24   ar
     4    19    20   ar
     5    20    21   ar
     6    21    22   ar
     7    22    23   ar
     8    22    27    1
     9    23    24   ar
    10    23     1    1
    11     1     2    2
    12     1     3    1
    13     3     8   ar
    14     3     4   ar
    15     4     5   ar
    16     5     6   ar
    17     6    11   ar
    18     6     7   ar
    19     7     8   ar
    20     7     9   ar
    21     9    10   ar
    22    10    11   ar
    23    10    12    1
    24    12    17   ar
    25    12    13   ar
    26    13    14   ar
    27    14    15   ar
    28    15    16   ar
    29    15    18    1
    30    16    17   ar
    31    27    28    1
    32    28    29    1
    33    29    30    2
    34    29    31    1
    35    31    32    1
    36    32    33    1
@<TRIPOS>MOLECULE
ZINC11309740
 32 35 0 0 0
SMALL
GASTEIGER

@<TRIPOS>ATOM
      1 C          20.7651   37.7138   28.5186 C.2     1  UNL1        0.3799
      2 O          20.5240   36.6013   28.0944 O.2     1  UNL1       -0.2413
      3 C          20.0391   38.2279   29.6982 C.ar    1  UNL1        0.2597
      4 N          18.7067   38.3044   29.8174 N.ar    1  UNL1       -0.2001
      5 C          18.3934   38.8092   30.9928 C.ar    1  UNL1        0.1715
      6 N          19.5574   39.0698   31.6601 N.ar    1  UNL1       -0.2101
      7 N          20.5990   38.6903   30.7978 N.ar    1  UNL1       -0.1374
      8 C          19.6859   39.6122   32.9443 C.ar    1  UNL1        0.0845
      9 C          19.6310   40.9878   33.1274 C.ar    1  UNL1        0.0192
     10 C          19.7576   41.5197   34.3957 C.ar    1  UNL1        0.0015
     11 C          19.9390   40.6841   35.4826 C.ar    1  UNL1        0.0001
     12 C          19.9946   39.3140   35.3035 C.ar    1  UNL1        0.0015
     13 C          19.8690   38.7758   34.0379 C.ar    1  UNL1        0.0192
     14 C          17.0323   39.0500   31.4979 C.ar    1  UNL1        0.0653
     15 C          16.6186   39.3047   32.7813 C.ar    1  UNL1        0.0101
     16 C          15.2776   39.4998   33.0167 C.ar    1  UNL1        0.0076
     17 C          14.4057   39.4350   31.9759 C.ar    1  UNL1        0.0355
     18 S          15.4901   39.0947   30.5993 S.2     1  UNL1       -0.0833
     19 O          21.6945   38.4787   27.9134 O.3     1  UNL1       -0.4309
     20 C          22.3738   37.9059   26.7651 C.3     1  UNL1        0.3176
     21 C          23.8595   37.8900   27.0167 C.2     1  UNL1        0.3666
     22 O          24.6057   37.4064   26.1985 O.2     1  UNL1       -0.2455
     23 O          24.3540   38.4134   28.1497 O.3     1  UNL1       -0.4216
     24 C          25.5711   35.7571   31.0660 C.ar    1  UNL1        0.1388
     25 C          24.3149   36.3410   31.1402 C.ar    1  UNL1        0.0400
     26 C          23.9077   37.2294   30.1644 C.ar    1  UNL1        0.0407
     27 C          24.7549   37.5383   29.1104 C.ar    1  UNL1        0.1488
     28 C          26.0088   36.9501   29.0331 C.ar    1  UNL1        0.0407
     29 C          26.4181   36.0656   30.0118 C.ar    1  UNL1        0.0400
     30 O          25.9721   34.8828   32.0269 O.3     1  UNL1       -0.4755
     31 C          26.8435   36.2880   33.7895 C.3     1  UNL1        0.0512
     32 C          25.7700   35.2752   33.3861 C.3     1  UNL1        0.2055
@<TRIPOS>BOND
     1    31    32    1
     2    32    30    1
     3    30    24    1
     4    24    29   ar
     5    24    25   ar
     6    25    26   ar
     7    26    27   ar
     8    27    28   ar
     9    27    23    1
    10    28    29   ar
    11    23    21    1
    12    21    22    2
    13    21    20    1
    14    20    19    1
    15    19     1    1
    16     1     2    2
    17     1     3    1
    18     3     7   ar
    19     3     4   ar
    20     4     5   ar
    21     5     6   ar
    22     5    14    1
    23     6     7   ar
    24     6     8    1
    25     8    13   ar
    26     8     9   ar
    27     9    10   ar
    28    10    11   ar
    29    11    12   ar
    30    12    13   ar
    31    14    18   ar
    32    14    15   ar
    33    15    16   ar
    34    16    17   ar
    35    17    18   ar
@<TRIPOS>MOLECULE
ZINC03416130
 31 33 0 0 0
SMALL
GASTEIGER

@<TRIPOS>ATOM
      1 C          13.9196   38.6644   30.8842 C.ar    1  UNL1        0.1797
      2 C          13.1514   39.2301   31.8910 C.ar    1  UNL1        0.0401
      3 C          11.7761   39.1141   31.8603 C.ar    1  UNL1        0.0032
      4 C          11.1534   38.4239   30.8327 C.ar    1  UNL1        0.0004
      5 C          11.9007   37.8508   29.8273 C.ar    1  UNL1        0.0096
      6 C          13.2937   37.9653   29.8425 C.ar    1  UNL1        0.1123
      7 C          14.0996   37.3542   28.7704 C.2     1  UNL1        0.3447
      8 O          14.9873   36.5722   29.0481 O.2     1  UNL1       -0.2448
      9 O          13.8521   37.6627   27.4822 O.3     1  UNL1       -0.4369
     10 C          12.7028   37.0284   26.8615 C.3     1  UNL1        0.2723
     11 C          11.9370   38.0497   26.0607 C.ar    1  UNL1        0.1672
     12 C          10.7852   38.6460   26.4417 C.ar    1  UNL1        0.0401
     13 C          10.4143   39.5239   25.4120 C.ar    1  UNL1        0.0471
     14 C          11.3665   39.4121   24.4385 C.ar    1  UNL1        0.2202
     15 O          12.2824   38.5116   24.8522 O.2     1  UNL1       -0.4475
     16 C          11.3895   40.1420   23.1688 C.2     1  UNL1        0.3764
     17 O          10.4809   40.0048   22.3720 O.2     1  UNL1       -0.2414
     18 O          12.4183   40.9665   22.8833 O.3     1  UNL1       -0.4392
     19 C          12.2894   42.3508   23.3020 C.3     1  UNL1        0.2561
     20 O          15.2707   38.7824   30.9101 O.3     1  UNL1       -0.3408
     21 S          15.8001   39.5759   32.0960 S.O2    1  UNL1        0.1519
     22 O          15.3865   38.8829   33.2656 O.2     1  UNL1       -0.1313
     23 O          15.4642   40.9358   31.8573 O.2     1  UNL1       -0.1313
     24 C          20.2475   38.0586   29.8071 C.3     1  UNL1        0.0311
     25 C          19.5644   38.7536   30.9566 C.ar    1  UNL1       -0.0205
     26 C          20.3172   39.3070   31.9757 C.ar    1  UNL1       -0.0045
     27 C          19.6907   39.9444   33.0301 C.ar    1  UNL1       -0.0032
     28 C          18.3112   40.0286   33.0656 C.ar    1  UNL1       -0.0013
     29 C          17.5586   39.4755   32.0468 C.ar    1  UNL1        0.1405
     30 C          18.1853   38.8382   30.9919 C.ar    1  UNL1        0.0173
     31 C          17.6281   40.7232   34.2153 C.3     1  UNL1        0.0325
@<TRIPOS>BOND
     1    24    25    1
     2    25    30   ar
     3    25    26   ar
     4    26    27   ar
     5    27    28   ar
     6    28    29   ar
     7    28    31    1
     8    29    30   ar
     9    29    21    1
    10    21    22    2
    11    21    23    2
    12    21    20    1
    13    20     1    1
    14     1     6   ar
    15     1     2   ar
    16     2     3   ar
    17     3     4   ar
    18     4     5   ar
    19     5     6   ar
    20     6     7    1
    21     7     8    2
    22     7     9    1
    23     9    10    1
    24    10    11    1
    25    11    15   ar
    26    11    12   ar
    27    12    13   ar
    28    13    14   ar
    29    14    15   ar
    30    14    16    1
    31    16    17    2
    32    16    18    1
    33    18    19    1
@<TRIPOS>MOLECULE
ZINC01116184
 31 33 0 0 0
SMALL
GASTEIGER

@<TRIPOS>ATOM
      1 C          24.5814   39.2915   27.8305 C.ar    1  UNL1        0.0017
      2 C          24.6070   38.1304   28.5829 C.ar    1  UNL1       -0.0023
      3 C          23.4287   37.4995   28.9235 C.ar    1  UNL1        0.0062
      4 C          22.2081   38.0348   28.5071 C.ar    1  UNL1        0.0756
      5 C          22.1898   39.2036   27.7434 C.ar    1  UNL1        0.0062
      6 C          23.3755   39.8272   27.4142 C.ar    1  UNL1       -0.0023
      7 C          20.9422   37.3643   28.8678 C.2     1  UNL1        0.3415
      8 O          20.5176   36.4578   28.1797 O.2     1  UNL1       -0.2449
      9 O          20.2586   37.7582   29.9596 O.3     1  UNL1       -0.4404
     10 C          19.1295   38.6458   29.7459 C.3     1  UNL1        0.2354
     11 C          18.4444   38.9128   31.0614 C.ar    1  UNL1        0.0215
     12 C          17.0661   39.0260   31.1114 C.ar    1  UNL1       -0.0007
     13 C          16.4285   39.2658   32.3156 C.ar    1  UNL1        0.0000
     14 C          17.1647   39.3988   33.4749 C.ar    1  UNL1        0.0064
     15 C          18.5559   39.2912   33.4308 C.ar    1  UNL1        0.0754
     16 C          19.1928   39.0491   32.2118 C.ar    1  UNL1        0.0057
     17 C          19.3506   39.4331   34.6679 C.2     1  UNL1        0.3413
     18 O          19.9923   38.4914   35.0890 O.2     1  UNL1       -0.2449
     19 O          19.3638   40.6066   35.3292 O.3     1  UNL1       -0.4413
     20 C          19.4690   41.8133   34.5286 C.3     1  UNL1        0.2560
     21 C          25.8729   39.9755   27.4627 C.3     1  UNL1        0.1822
     22 S          26.4759   40.9319   28.8812 S.O2    1  UNL1        0.0129
     23 O          25.8071   40.5237   30.0667 O.2     1  UNL1       -0.1683
     24 O          27.8936   41.0220   28.8436 O.2     1  UNL1       -0.1683
     25 C          24.5485   46.5623   27.8865 C.3     1  UNL1        0.0310
     26 C          25.0298   45.1559   28.1347 C.ar    1  UNL1       -0.0218
     27 C          26.3070   44.7857   27.7569 C.ar    1  UNL1       -0.0029
     28 C          26.7485   43.4957   27.9847 C.ar    1  UNL1        0.0180
     29 C          25.9131   42.5762   28.5909 C.ar    1  UNL1        0.1060
     30 C          24.6343   42.9450   28.9643 C.ar    1  UNL1        0.0180
     31 C          24.1943   44.2362   28.7406 C.ar    1  UNL1       -0.0029
@<TRIPOS>BOND
     1    25    26    1
     2    26    31   ar
     3    26    27   ar
     4    27    28   ar
     5    28    29   ar
     6    29    30   ar
     7    29    22    1
     8    30    31   ar
     9    22    23    2
    10    22    24    2
    11    22    21    1
    12    21     1    1
    13     1     6   ar
    14     1     2   ar
    15     2     3   ar
    16     3     4   ar
    17     4     5   ar
    18     4     7    1
    19     5     6   ar
    20     7     8    2
    21     7     9    1
    22     9    10    1
    23    10    11    1
    24    11    16   ar
    25    11    12   ar
    26    12    13   ar
    27    13    14   ar
    28    14    15   ar
    29    15    16   ar
    30    15    17    1
    31    17    18    2
    32    17    19    1
    33    19    20    1
@<TRIPOS>MOLECULE
ZINC09779972
 33 36 0 0 0
SMALL
GASTEIGER

@<TRIPOS>ATOM
      1 N          20.6138   51.0072   25.5293 N.ar    1  UNL1       -0.2473
      2 C          21.7752   50.3127   25.5636 C.ar    1  UNL1        0.2672
      3 O          22.3237   50.0459   26.6162 O.2     1  UNL1       -0.2667
      4 C          22.3466   49.8947   24.2730 C.ar    1  UNL1        0.0909
      5 C          23.5255   49.1831   24.1845 C.ar    1  UNL1        0.0092
      6 C          24.0082   48.8192   22.9047 C.ar    1  UNL1        0.0164
      7 C          25.2056   48.0945   22.7838 C.ar    1  UNL1        0.0014
      8 C          25.6667   47.7457   21.5488 C.ar    1  UNL1        0.0001
      9 C          24.9616   48.1005   20.4051 C.ar    1  UNL1        0.0015
     10 C          23.7856   48.8112   20.4968 C.ar    1  UNL1        0.0176
     11 C          23.2917   49.1806   21.7462 C.ar    1  UNL1        0.0653
     12 N          22.1120   49.8922   21.8358 N.ar    1  UNL1       -0.2915
     13 C          21.6210   50.2645   23.0536 C.ar    1  UNL1        0.1569
     14 N          20.4887   50.9439   23.1751 N.ar    1  UNL1       -0.1743
     15 C          20.0146   51.2979   24.3654 C.ar    1  UNL1        0.3537
     16 O          18.9706   51.9259   24.4012 O.2     1  UNL1       -0.2443
     17 C          21.4210   50.2378   20.6747 C.ar    1  UNL1        0.0653
     18 C          20.5112   49.3448   20.1167 C.ar    1  UNL1        0.0178
     19 C          19.8273   49.6827   18.9707 C.ar    1  UNL1        0.0079
     20 C          20.0479   50.9244   18.3675 C.ar    1  UNL1        0.0757
     21 C          20.9665   51.8168   18.9277 C.ar    1  UNL1        0.0079
     22 C          21.6426   51.4747   20.0771 C.ar    1  UNL1        0.0178
     23 C          19.3174   51.2896   17.1391 C.2     1  UNL1        0.3412
     24 O          18.1024   51.2965   17.1342 O.2     1  UNL1       -0.2449
     25 O          19.9977   51.6211   16.0242 O.3     1  UNL1       -0.4454
     26 C          20.7297   50.5585   15.3584 C.3     1  UNL1        0.2088
     27 C          22.2314   50.7674   15.5638 C.3     1  UNL1        0.0475
     28 C          22.7778   49.6728   16.4825 C.3     1  UNL1        0.0038
     29 C          24.2862   49.5329   16.2681 C.3     1  UNL1        0.0001
     30 C          20.0009   51.4481   26.7846 C.3     1  UNL1        0.1136
     31 C          18.9696   50.4135   27.2397 C.3     1  UNL1        0.0247
     32 C          19.8374   49.2583   29.2781 C.3     1  UNL1        0.0001
     33 C          18.9251   50.3761   28.7685 C.3     1  UNL1        0.0020
@<TRIPOS>BOND
     1    32    33    1
     2    33    31    1
     3    31    30    1
     4    30     1    1
     5     1    15   ar
     6     1     2   ar
     7     2     3    2
     8     2     4   ar
     9     4    13    1
    10     4     5   ar
    11     5     6   ar
    12     6    11   ar
    13     6     7   ar
    14     7     8   ar
    15     8     9   ar
    16     9    10   ar
    17    10    11   ar
    18    11    12   ar
    19    12    13   ar
    20    12    17    1
    21    13    14   ar
    22    14    15   ar
    23    15    16    2
    24    17    22   ar
    25    17    18   ar
    26    18    19   ar
    27    19    20   ar
    28    20    21   ar
    29    20    23    1
    30    21    22   ar
    31    23    24    2
    32    23    25    1
    33    25    26    1
    34    26    27    1
    35    27    28    1
    36    28    29    1
@<TRIPOS>MOLECULE
ZINC09440245
 31 32 0 0 0
SMALL
GASTEIGER

@<TRIPOS>ATOM
      1 C          21.4897   38.2383   27.3255 C.2     1  UNL1        0.3439
      2 O          21.4749   37.3021   26.5515 O.2     1  UNL1       -0.2448
      3 C          24.5434   40.3417   27.9077 C.ar    1  UNL1        0.1225
      4 C          25.1785   39.6257   28.9083 C.ar    1  UNL1        0.0222
      5 C          24.6184   38.4602   29.3961 C.ar    1  UNL1        0.0312
      6 C          23.4174   38.0010   28.8865 C.ar    1  UNL1        0.1464
      7 C          22.7712   38.7205   27.8759 C.ar    1  UNL1        0.1043
      8 C          23.3482   39.8949   27.3863 C.ar    1  UNL1        0.0286
      9 F          22.8700   36.8616   29.3636 F       1  UNL1       -0.2040
     10 S          25.2687   41.8258   27.2943 S.O2    1  UNL1        0.0633
     11 O          26.6499   41.7688   27.6227 O.2     1  UNL1       -0.1528
     12 O          24.8089   41.9806   25.9586 O.2     1  UNL1       -0.1528
     13 N          24.6267   43.0804   28.1640 N.3     1  UNL1       -0.1555
     14 C          22.2628   43.2640   28.7635 C.3     1  UNL1        0.0206
     15 C          23.3470   43.6701   27.7633 C.3     1  UNL1        0.0958
     16 C          25.3386   43.6005   29.3341 C.3     1  UNL1        0.0958
     17 C          25.5067   45.1150   29.1972 C.3     1  UNL1        0.0206
     18 O          20.3361   38.8365   27.6815 O.3     1  UNL1       -0.4368
     19 C          20.2781   39.4188   29.0103 C.3     1  UNL1        0.2769
     20 C          19.6995   38.4150   29.9739 C.2     1  UNL1        0.2167
     21 O          19.9975   37.2433   29.8804 O.2     1  UNL1       -0.2874
     22 C          18.7728   38.8568   31.0284 C.ar    1  UNL1        0.0339
     23 C          17.3915   38.8149   30.8132 C.ar    1  UNL1       -0.0019
     24 C          16.5299   39.2309   31.8058 C.ar    1  UNL1       -0.0260
     25 C          17.0289   39.6894   33.0129 C.ar    1  UNL1       -0.0300
     26 C          18.3941   39.7285   33.2356 C.ar    1  UNL1       -0.0299
     27 C          19.2690   39.3212   32.2505 C.ar    1  UNL1       -0.0232
     28 C          20.7556   39.3706   32.4927 C.3     1  UNL1        0.0308
     29 C          18.9264   40.2235   34.5558 C.3     1  UNL1        0.0304
     30 C          16.0799   40.1418   34.0927 C.3     1  UNL1        0.0304
     31 C          15.0413   39.1862   31.5763 C.3     1  UNL1        0.0307
@<TRIPOS>BOND
     1    14    15    1
     2    15    13    1
     3    13    16    1
     4    13    10    1
     5    16    17    1
     6    10    11    2
     7    10    12    2
     8    10     3    1
     9     3     8   ar
    10     3     4   ar
    11     4     5   ar
    12     5     6   ar
    13     6     7   ar
    14     6     9    1
    15     7     8   ar
    16     7     1    1
    17     1     2    2
    18     1    18    1
    19    18    19    1
    20    19    20    1
    21    20    21    2
    22    20    22    1
    23    22    27   ar
    24    22    23   ar
    25    23    24   ar
    26    24    25   ar
    27    24    31    1
    28    25    26   ar
    29    25    30    1
    30    26    27   ar
    31    26    29    1
    32    27    28    1
@<TRIPOS>MOLECULE
ZINC10481817
 31 33 0 0 0
SMALL
GASTEIGER

@<TRIPOS>ATOM
      1 C          13.8512   38.1203   30.1489 C.ar    1  UNL1        0.1937
      2 N          14.8172   37.9815   29.2684 N.ar    1  UNL1       -0.1221
      3 N          14.3239   37.7396   28.1067 N.ar    1  UNL1       -0.1282
      4 C          13.0130   37.7186   28.1720 C.ar    1  UNL1        0.1671
      5 N          12.6701   37.9581   29.4828 N.ar    1  UNL1       -0.2862
      6 C          12.0811   37.4770   27.0501 C.ar    1  UNL1        0.0376
      7 C          11.2999   36.3204   27.0242 C.ar    1  UNL1        0.0032
      8 C          10.4293   36.1031   25.9766 C.ar    1  UNL1        0.0018
      9 C          10.3366   37.0237   24.9477 C.ar    1  UNL1        0.0241
     10 C          11.1076   38.1721   24.9674 C.ar    1  UNL1        0.1430
     11 C          11.9790   38.4039   26.0118 C.ar    1  UNL1        0.0271
     12 N          10.9979   39.1543   23.8654 N.pl3   1  UNL1        0.0577
     13 O          10.0411   39.1203   23.1124 O.2     1  UNL1       -0.1261
     14 O          11.8643   39.9964   23.7115 O.2     1  UNL1       -0.1261
     15 S          14.0442   38.4536   31.8682 S.3     1  UNL1       -0.0708
     16 C          14.7241   40.1292   31.7893 C.3     1  UNL1        0.0914
     17 C          18.3476   39.1656   32.2518 C.ar    1  UNL1        0.1723
     18 C          17.0383   39.1776   31.7986 C.ar    1  UNL1        0.0367
     19 C          16.1477   40.1174   32.2833 C.ar    1  UNL1       -0.0077
     20 C          16.5619   41.0502   33.2159 C.ar    1  UNL1       -0.0001
     21 C          17.8654   41.0401   33.6764 C.ar    1  UNL1        0.0399
     22 C          18.7630   40.1008   33.1947 C.ar    1  UNL1        0.1779
     23 C          19.6623   38.3973   30.4249 C.3     1  UNL1        0.2526
     24 O          19.2248   38.2414   31.7764 O.3     1  UNL1       -0.4684
     25 O          20.0472   40.0932   33.6423 O.3     1  UNL1       -0.4205
     26 C          20.2604   39.6849   34.9950 C.3     1  UNL1        0.5087
     27 F          20.0189   40.7645   35.8515 F       1  UNL1       -0.1550
     28 F          19.3885   38.6368   35.3086 F       1  UNL1       -0.1550
     29 C          11.3196   38.0254   30.0463 C.3     1  UNL1        0.1359
     30 C          11.1433   39.3332   30.7739 C.2     1  UNL1       -0.0017
     31 C          10.4199   40.2867   30.2415 C.2     1  UNL1       -0.0029
@<TRIPOS>BOND
     1    23    24    1
     2    24    17    1
     3    17    22   ar
     4    17    18   ar
     5    18    19   ar
     6    19    20   ar
     7    19    16    1
     8    20    21   ar
     9    21    22   ar
    10    22    25    1
    11    25    26    1
    12    26    27    1
    13    26    28    1
    14    16    15    1
    15    15     1    1
    16     1     5   ar
    17     1     2   ar
    18     2     3   ar
    19     3     4   ar
    20     4     5   ar
    21     4     6    1
    22     5    29    1
    23    29    30    1
    24    30    31    2
    25     6    11   ar
    26     6     7   ar
    27     7     8   ar
    28     8     9   ar
    29     9    10   ar
    30    10    11   ar
    31    10    12    1
    32    12    13    2
    33    12    14    2
@<TRIPOS>MOLECULE
ZINC11024482
 33 36 0 0 0
SMALL
GASTEIGER

@<TRIPOS>ATOM
      1 O          13.7332   37.3322   27.5377 O.3     1  UNL1       -0.4368
      2 C          14.1363   37.1468   28.8096 C.2     1  UNL1        0.3417
      3 O          14.9851   36.3157   29.0625 O.2     1  UNL1       -0.2449
      4 C          13.5457   37.9548   29.8974 C.ar    1  UNL1        0.0787
      5 C          12.1904   37.8430   30.1964 C.ar    1  UNL1        0.0065
      6 C          11.6433   38.5975   31.2174 C.ar    1  UNL1        0.0002
      7 C          12.4327   39.4738   31.9414 C.ar    1  UNL1        0.0001
      8 C          13.7787   39.6024   31.6559 C.ar    1  UNL1        0.0034
      9 C          14.3489   38.8468   30.6337 C.ar    1  UNL1        0.0452
     10 C          15.7883   38.9809   30.3237 C.2     1  UNL1        0.1958
     11 O          16.1591   39.0255   29.1673 O.2     1  UNL1       -0.2866
     12 C          16.7755   39.0604   31.4196 C.ar    1  UNL1        0.0390
     13 C          16.3980   39.5574   32.6696 C.ar    1  UNL1        0.0032
     14 C          17.3238   39.6238   33.6897 C.ar    1  UNL1        0.0001
     15 C          18.6269   39.2102   33.4741 C.ar    1  UNL1        0.0000
     16 C          19.0092   38.7222   32.2368 C.ar    1  UNL1        0.0001
     17 C          18.0926   38.6446   31.2092 C.ar    1  UNL1        0.0032
     18 C          13.0347   36.2304   26.9002 C.3     1  UNL1        0.2770
     19 C          11.5613   36.5400   26.8353 C.2     1  UNL1        0.2181
     20 O          10.7705   35.8587   27.4541 O.2     1  UNL1       -0.2873
     21 C          10.0166   41.1745   25.3875 C.3     1  UNL1        0.0500
     22 C          10.4033   39.7180   25.4026 C.ar    1  UNL1        0.0373
     23 C          10.8254   39.0356   26.4803 C.ar    1  UNL1        0.0168
     24 C          11.0839   37.6629   26.0255 C.ar    1  UNL1        0.0512
     25 C          10.7784   37.6473   24.6776 C.ar    1  UNL1        0.0401
     26 N          10.3802   38.8822   24.3237 N.ar    1  UNL1       -0.3314
     27 C          10.8776   36.4542   23.7623 C.3     1  UNL1        0.0501
     28 C           9.9731   39.2737   22.9719 C.3     1  UNL1        0.1348
     29 C          11.1898   39.7925   22.2030 C.3     1  UNL1        0.1378
     30 C          10.7790   40.9597   21.2705 C.3     1  UNL1        0.0341
     31 C          12.1305   41.7113   21.1261 C.3     1  UNL1        0.0346
     32 C          12.7722   41.5012   22.5144 C.3     1  UNL1        0.1422
     33 O          12.1495   40.3572   23.1104 O.3     1  UNL1       -0.3543
@<TRIPOS>BOND
     1    21    22    1
     2    22    26   ar
     3    22    23   ar
     4    23    24   ar
     5    24    25   ar
     6    24    19    1
     7    25    26   ar
     8    25    27    1
     9    26    28    1
    10    28    29    1
    11    29    33    1
    12    29    30    1
    13    30    31    1
    14    31    32    1
    15    32    33    1
    16    19    20    2
    17    19    18    1
    18    18     1    1
    19     1     2    1
    20     2     3    2
    21     2     4    1
    22     4     9   ar
    23     4     5   ar
    24     5     6   ar
    25     6     7   ar
    26     7     8   ar
    27     8     9   ar
    28     9    10    1
    29    10    11    2
    30    10    12    1
    31    12    17   ar
    32    12    13   ar
    33    13    14   ar
    34    14    15   ar
    35    15    16   ar
    36    16    17   ar
@<TRIPOS>MOLECULE
ZINC19828246
 30 32 0 0 0
SMALL
GASTEIGER

@<TRIPOS>ATOM
      1 N          21.7299   39.9657   28.1983 N.ar    1  UNL1       -0.2212
      2 C          22.9429   39.6363   27.7055 C.ar    1  UNL1        0.1961
      3 N          23.6939   40.7162   27.7272 N.ar    1  UNL1       -0.1798
      4 C          22.9987   41.7375   28.2277 C.ar    1  UNL1        0.3290
      5 N          21.7965   41.3280   28.5329 N.ar    1  UNL1       -0.1235
      6 N          23.5080   43.1152   28.4095 N.pl3   1  UNL1        0.0965
      7 O          24.4182   43.3301   29.1897 O.2     1  UNL1       -0.1230
      8 O          23.0169   44.0344   27.7789 O.2     1  UNL1       -0.1230
      9 C          20.5751   39.0782   28.3551 C.3     1  UNL1        0.1561
     10 C          19.3964   38.9866   32.4649 C.ar    1  UNL1        0.0756
     11 C          20.7288   39.2252   32.1226 C.ar    1  UNL1        0.0062
     12 C          21.1022   39.2533   30.7949 C.ar    1  UNL1       -0.0021
     13 C          20.1597   39.0455   29.8034 C.ar    1  UNL1        0.0022
     14 C          18.8367   38.8138   30.1354 C.ar    1  UNL1       -0.0021
     15 C          18.4505   38.7777   31.4592 C.ar    1  UNL1        0.0062
     16 C          18.9892   38.9546   33.8846 C.2     1  UNL1        0.3412
     17 O          19.5682   38.2271   34.6662 O.2     1  UNL1       -0.2449
     18 O          17.9759   39.7322   34.3124 O.3     1  UNL1       -0.4454
     19 C          19.1811   41.6035   35.3005 C.3     1  UNL1        0.0513
     20 C          18.1705   41.1691   34.2370 C.3     1  UNL1        0.2089
     21 S          23.4310   38.0446   27.1288 S.3     1  UNL1       -0.0271
     22 C          25.1291   38.0564   27.5986 C.2     1  UNL1        0.1178
     23 S          26.3211   38.5813   26.4875 S.2     1  UNL1       -0.0275
     24 N          25.4897   37.6521   28.8328 N.am    1  UNL1       -0.2973
     25 C          24.6231   37.9153   29.9897 C.3     1  UNL1        0.0917
     26 C          24.3596   36.5868   30.7150 C.3     1  UNL1        0.0215
     27 C          25.6967   35.9311   31.0679 C.3     1  UNL1        0.0034
     28 C          26.4749   35.6328   29.7845 C.3     1  UNL1        0.0215
     29 C          26.7597   36.9454   29.0477 C.3     1  UNL1        0.0917
     30 C          25.4404   34.6259   31.8239 C.3     1  UNL1        0.0001
@<TRIPOS>BOND
     1    19    20    1
     2    20    18    1
     3    18    16    1
     4    16    17    2
     5    16    10    1
     6    10    15   ar
     7    10    11   ar
     8    11    12   ar
     9    12    13   ar
    10    13    14   ar
    11    13     9    1
    12    14    15   ar
    13     9     1    1
    14     1     5   ar
    15     1     2   ar
    16     2     3   ar
    17     2    21    1
    18     3     4   ar
    19     4     5   ar
    20     4     6    1
    21     6     7    2
    22     6     8    2
    23    21    22    1
    24    22    23    2
    25    22    24    1
    26    24    29    1
    27    24    25    1
    28    25    26    1
    29    26    27    1
    30    27    28    1
    31    27    30    1
    32    28    29    1
@<TRIPOS>MOLECULE
ZINC27703819
 31 33 0 0 0
SMALL
GASTEIGER

@<TRIPOS>ATOM
      1 O          11.9545   37.2849   26.4854 O.3     1  UNL1       -0.4368
      2 C          12.9007   36.6964   27.2452 C.2     1  UNL1        0.3419
      3 O          13.3418   35.6078   26.9316 O.2     1  UNL1       -0.2449
      4 C          13.3971   37.3694   28.4490 C.2     1  UNL1        0.0834
      5 C          14.7166   37.5966   28.5980 C.2     1  UNL1        0.0257
      6 C          15.2158   38.2733   29.8085 C.ar    1  UNL1        0.0815
      7 C          14.3062   38.9403   30.6482 C.ar    1  UNL1        0.0191
      8 C          14.7563   39.5694   31.7710 C.ar    1  UNL1        0.0030
      9 C          16.1359   39.5274   32.0525 C.ar    1  UNL1        0.0178
     10 C          16.6655   40.1544   33.1915 C.ar    1  UNL1        0.0024
     11 C          18.0040   40.0944   33.4330 C.ar    1  UNL1        0.0115
     12 C          18.8592   39.4172   32.5632 C.ar    1  UNL1        0.0592
     13 C          18.3808   38.7972   31.4495 C.ar    1  UNL1        0.0305
     14 C          17.0028   38.8376   31.1656 C.ar    1  UNL1        0.0821
     15 N          16.5078   38.2352   30.0840 N.ar    1  UNL1       -0.2453
     16 CL         20.5601   39.3638   32.9066 Cl      1  UNL1       -0.0822
     17 C          11.0608   36.4086   25.7493 C.3     1  UNL1        0.2770
     18 C           9.9416   37.2207   25.1504 C.2     1  UNL1        0.2181
     19 O           8.7885   36.8827   25.3204 O.2     1  UNL1       -0.2873
     20 C          11.1448   40.3191   21.2887 C.3     1  UNL1        0.0500
     21 C          10.7761   39.7733   22.6441 C.ar    1  UNL1        0.0373
     22 C          10.5839   38.4758   22.9350 C.ar    1  UNL1        0.0168
     23 C          10.2454   38.4177   24.3632 C.ar    1  UNL1        0.0512
     24 C          10.2666   39.7254   24.8103 C.ar    1  UNL1        0.0400
     25 N          10.5847   40.5183   23.7716 N.ar    1  UNL1       -0.3332
     26 C           9.9822   40.1835   26.2176 C.3     1  UNL1        0.0501
     27 C          10.7090   41.9764   23.8407 C.3     1  UNL1        0.1145
     28 C          12.1004   42.3931   23.3600 C.3     1  UNL1        0.0271
     29 C           9.6467   42.6216   22.9486 C.3     1  UNL1        0.1646
     30 O           8.4413   42.7990   23.6953 O.3     1  UNL1       -0.3491
     31 C           7.5496   43.7669   23.1383 C.3     1  UNL1        0.1742
@<TRIPOS>BOND
     1    20    21    1
     2    21    25   ar
     3    21    22   ar
     4    22    23   ar
     5    23    24   ar
     6    23    18    1
     7    24    25   ar
     8    24    26    1
     9    25    27    1
    10    27    28    1
    11    27    29    1
    12    29    30    1
    13    30    31    1
    14    18    19    2
    15    18    17    1
    16    17     1    1
    17     1     2    1
    18     2     3    2
    19     2     4    1
    20     4     5    2
    21     5     6    1
    22     6    15   ar
    23     6     7   ar
    24     7     8   ar
    25     8     9   ar
    26     9    14   ar
    27     9    10   ar
    28    10    11   ar
    29    11    12   ar
    30    12    13   ar
    31    12    16    1
    32    13    14   ar
    33    14    15   ar
@<TRIPOS>MOLECULE
ZINC26891064
 33 36 0 0 0
SMALL
GASTEIGER

@<TRIPOS>ATOM
      1 C          23.5703   41.4782   27.6247 C.ar    1  UNL1        0.1764
      2 C          24.2926   42.6853   28.0585 C.ar    1  UNL1        0.0304
      3 C          23.8666   43.4775   29.1189 C.ar    1  UNL1        0.0019
      4 C          24.5973   44.5943   29.4656 C.ar    1  UNL1        0.0001
      5 C          25.7496   44.9344   28.7691 C.ar    1  UNL1        0.0002
      6 C          26.1893   44.1627   27.7146 C.ar    1  UNL1        0.0048
      7 C          25.4659   43.0318   27.3492 C.ar    1  UNL1        0.0593
      8 C          25.8625   42.1546   26.2390 C.ar    1  UNL1        0.2766
      9 O          26.8615   42.3911   25.5847 O.2     1  UNL1       -0.2655
     10 N          25.0943   41.0810   25.9619 N.ar    1  UNL1       -0.2119
     11 N          24.0326   40.7855   26.6117 N.ar    1  UNL1       -0.1599
     12 C          22.3387   41.0560   28.3177 C.2     1  UNL1        0.3616
     13 O          21.3384   41.7423   28.2513 O.2     1  UNL1       -0.2431
     14 O          22.3229   39.9087   29.0247 O.3     1  UNL1       -0.4318
     15 C          21.1613   39.0522   28.8656 C.3     1  UNL1        0.2889
     16 C          20.3750   39.0284   30.1511 C.ar    1  UNL1        0.0283
     17 C          19.0477   38.6424   30.1424 C.ar    1  UNL1       -0.0003
     18 C          18.3278   38.6165   31.3222 C.ar    1  UNL1       -0.0002
     19 C          18.9326   38.9852   32.5092 C.ar    1  UNL1       -0.0000
     20 C          20.2584   39.3762   32.5171 C.ar    1  UNL1       -0.0002
     21 C          20.9796   39.3980   31.3380 C.ar    1  UNL1       -0.0003
     22 C          21.6105   37.6546   28.5255 C.2     1  UNL1        0.3622
     23 O          22.2969   37.0347   29.3030 O.2     1  UNL1       -0.2457
     24 O          21.2480   37.0983   27.3589 O.3     1  UNL1       -0.4458
     25 C          23.2224   37.4605   25.9801 C.3     1  UNL1        0.0513
     26 C          21.7269   37.7381   26.1467 C.3     1  UNL1        0.2087
     27 C          25.4939   40.2100   24.8538 C.3     1  UNL1        0.1571
     28 C          24.7279   40.5917   23.6134 C.ar    1  UNL1        0.0022
     29 C          25.1490   41.6586   22.8419 C.ar    1  UNL1       -0.0023
     30 C          24.4496   42.0051   21.7010 C.ar    1  UNL1       -0.0003
     31 C          23.3259   41.2882   21.3345 C.ar    1  UNL1       -0.0000
     32 C          22.9018   40.2246   22.1090 C.ar    1  UNL1       -0.0003
     33 C          23.6011   39.8781   23.2499 C.ar    1  UNL1       -0.0023
@<TRIPOS>BOND
     1    25    26    1
     2    26    24    1
     3    24    22    1
     4    22    23    2
     5    22    15    1
     6    15    16    1
     7    15    14    1
     8    16    21   ar
     9    16    17   ar
    10    17    18   ar
    11    18    19   ar
    12    19    20   ar
    13    20    21   ar
    14    14    12    1
    15    12    13    2
    16    12     1    1
    17     1    11   ar
    18     1     2   ar
    19     2     7   ar
    20     2     3   ar
    21     3     4   ar
    22     4     5   ar
    23     5     6   ar
    24     6     7   ar
    25     7     8   ar
    26     8     9    2
    27     8    10   ar
    28    10    11   ar
    29    10    27    1
    30    27    28    1
    31    28    33   ar
    32    28    29   ar
    33    29    30   ar
    34    30    31   ar
    35    31    32   ar
    36    32    33   ar
@<TRIPOS>MOLECULE
ZINC13005012
 32 34 0 0 0
SMALL
GASTEIGER

@<TRIPOS>ATOM
      1 C          14.5794   37.3297   28.7628 C.2     1  UNL1        0.1956
      2 O          15.2161   36.3145   28.5470 O.2     1  UNL1       -0.2866
      3 C          15.3398   39.6099   32.2648 C.ar    1  UNL1        0.1355
      4 C          14.0314   39.3041   31.9071 C.ar    1  UNL1        0.0367
      5 C          13.7808   38.5653   30.7729 C.ar    1  UNL1        0.0063
      6 C          14.8438   38.1224   29.9804 C.ar    1  UNL1        0.0389
      7 C          16.1577   38.4270   30.3466 C.ar    1  UNL1        0.0028
      8 C          16.3996   39.1710   31.4799 C.ar    1  UNL1        0.0228
      9 C          15.8892   41.7225   33.2031 C.3     1  UNL1        0.2525
     10 O          15.5828   40.3384   33.3838 O.3     1  UNL1       -0.4717
     11 C          17.8157   39.5049   31.8726 C.3     1  UNL1        0.0872
     12 S          18.9554   38.3444   31.0696 S.3     1  UNL1       -0.1293
     13 C          20.3943   39.3646   30.6459 C.3     1  UNL1        0.0993
     14 C          20.4844   39.5090   29.1486 C.2     1  UNL1        0.0612
     15 O          20.0777   38.6261   28.4310 O.co2   1  UNL1       -0.5483
     16 O          21.0165   40.6183   28.6121 O.co2   1  UNL1       -0.5483
     17 C          13.5525   37.7640   27.8158 C.2     1  UNL1        0.0420
     18 C          12.6007   36.8977   27.4076 C.2     1  UNL1        0.0034
     19 C          11.5679   37.3346   26.4552 C.ar    1  UNL1        0.0031
     20 C          10.5147   36.4774   26.1181 C.ar    1  UNL1        0.0002
     21 C           9.5519   36.8896   25.2214 C.ar    1  UNL1        0.0031
     22 C           9.6207   38.1506   24.6562 C.ar    1  UNL1        0.0369
     23 C          10.6591   39.0112   24.9875 C.ar    1  UNL1        0.1391
     24 C          11.6316   38.6104   25.8870 C.ar    1  UNL1        0.0369
     25 O          10.7199   40.2484   24.4283 O.3     1  UNL1       -0.4706
     26 C          11.8731   40.5477   23.6393 C.3     1  UNL1        0.2320
     27 C          11.4778   41.4381   22.4895 C.ar    1  UNL1        0.0212
     28 C          10.4616   42.3617   22.6482 C.ar    1  UNL1       -0.0007
     29 C          10.1024   43.1820   21.5951 C.ar    1  UNL1       -0.0002
     30 C          10.7522   43.0713   20.3800 C.ar    1  UNL1       -0.0000
     31 C          11.7645   42.1437   20.2195 C.ar    1  UNL1       -0.0002
     32 C          12.1274   41.3273   21.2743 C.ar    1  UNL1       -0.0007
@<TRIPOS>UNITY_ATOM_ATTR
16 1
charge -1
@<TRIPOS>BOND
     1     9    10    1
     2    10     3    1
     3     3     8   ar
     4     3     4   ar
     5     4     5   ar
     6     5     6   ar
     7     6     7   ar
     8     6     1    1
     9     7     8   ar
    10     8    11    1
    11    11    12    1
    12    12    13    1
    13    13    14    1
    14    14    15   ar
    15    14    16   ar
    16     1     2    2
    17     1    17    1
    18    17    18    2
    19    18    19    1
    20    19    24   ar
    21    19    20   ar
    22    20    21   ar
    23    21    22   ar
    24    22    23   ar
    25    23    24   ar
    26    23    25    1
    27    25    26    1
    28    26    27    1
    29    27    32   ar
    30    27    28   ar
    31    28    29   ar
    32    29    30   ar
    33    30    31   ar
    34    31    32   ar
@<TRIPOS>MOLECULE
ZINC08966283
 31 34 0 0 0
SMALL
GASTEIGER

@<TRIPOS>ATOM
      1 N          20.5580   38.9187   28.6899 N.am    1  UNL1       -0.2336
      2 C          21.1103   37.7667   28.2609 C.2     1  UNL1        0.2425
      3 O          20.8433   36.7223   28.8167 O.2     1  UNL1       -0.2735
      4 C          19.6827   38.9100   29.7690 C.ar    1  UNL1        0.1691
      5 N          18.3651   38.8336   29.7750 N.ar    1  UNL1       -0.2237
      6 C          17.6809   38.8381   30.9093 C.ar    1  UNL1        0.0897
      7 C          18.3523   38.9235   32.0971 C.ar    1  UNL1        0.0572
      8 S          20.0427   38.9913   31.5180 S.2     1  UNL1       -0.0506
      9 C          16.2004   38.7518   30.8908 C.ar    1  UNL1        0.0182
     10 C          15.5446   38.2187   29.7824 C.ar    1  UNL1        0.0015
     11 C          14.1670   38.1364   29.7726 C.ar    1  UNL1        0.0000
     12 C          13.4367   38.5920   30.8555 C.ar    1  UNL1        0.0000
     13 C          14.0819   39.1265   31.9562 C.ar    1  UNL1        0.0000
     14 C          15.4594   39.2089   31.9792 C.ar    1  UNL1        0.0015
     15 C          20.8804   40.1803   28.0184 C.3     1  UNL1        0.1264
     16 C          22.2381   42.1534   28.4923 C.2     1  UNL1       -0.0031
     17 C          21.7070   41.0419   28.9378 C.2     1  UNL1       -0.0043
     18 C          22.0595   37.7760   27.0904 C.3     1  UNL1        0.1520
     19 S          23.7602   37.6267   27.6915 S.3     1  UNL1       -0.0455
     20 C          24.4118   39.1729   27.1536 C.ar    1  UNL1        0.2784
     21 N          23.9570   39.9078   26.1671 N.ar    1  UNL1       -0.1009
     22 N          24.6774   40.9683   26.0595 N.ar    1  UNL1       -0.1106
     23 C          25.6121   40.9536   26.9640 C.ar    1  UNL1        0.2314
     24 O          25.4657   39.8228   27.6823 O.2     1  UNL1       -0.4145
     25 C          26.6636   42.0123   27.1749 C.3     1  UNL1        0.1133
     26 C          26.0454   43.2054   27.8570 C.ar    1  UNL1       -0.0129
     27 C          25.9324   44.4061   27.1814 C.ar    1  UNL1       -0.0038
     28 C          25.3608   45.4992   27.8054 C.ar    1  UNL1       -0.0003
     29 C          24.9119   45.3945   29.1087 C.ar    1  UNL1       -0.0000
     30 C          25.0297   44.1953   29.7861 C.ar    1  UNL1       -0.0003
     31 C          25.5964   43.1008   29.1602 C.ar    1  UNL1       -0.0038
@<TRIPOS>BOND
     1    16    17    2
     2    17    15    1
     3    15     1    1
     4     1     4    1
     5     1     2   am
     6     4     8   ar
     7     4     5   ar
     8     5     6   ar
     9     6     7   ar
    10     6     9    1
    11     7     8   ar
    12     9    14   ar
    13     9    10   ar
    14    10    11   ar
    15    11    12   ar
    16    12    13   ar
    17    13    14   ar
    18     2     3    2
    19     2    18    1
    20    18    19    1
    21    19    20    1
    22    20    24   ar
    23    20    21   ar
    24    21    22   ar
    25    22    23   ar
    26    23    24   ar
    27    23    25    1
    28    25    26    1
    29    26    31   ar
    30    26    27   ar
    31    27    28   ar
    32    28    29   ar
    33    29    30   ar
    34    30    31   ar
@<TRIPOS>MOLECULE
ZINC20673451
 31 33 0 0 0
SMALL
GASTEIGER

@<TRIPOS>ATOM
      1 C          18.7110   39.2288   32.1954 C.ar    1  UNL1        0.1067
      2 C          20.1014   39.1574   32.0426 C.ar    1  UNL1        0.0666
      3 N          20.6023   38.8737   30.8552 N.ar    1  UNL1       -0.2549
      4 C          19.8125   38.6565   29.8109 C.ar    1  UNL1        0.0475
      5 N          18.4928   38.7176   29.9023 N.ar    1  UNL1       -0.2506
      6 C          17.9034   38.9916   31.0613 C.ar    1  UNL1        0.0882
      7 C          21.0127   39.4017   33.2177 C.3     1  UNL1        0.0523
      8 C          16.4271   39.0535   31.1606 C.ar    1  UNL1        0.0179
      9 C          15.8238   39.8088   32.1661 C.ar    1  UNL1        0.0012
     10 C          14.4478   39.8660   32.2506 C.ar    1  UNL1       -0.0042
     11 C          13.6668   39.1680   31.3468 C.ar    1  UNL1       -0.0218
     12 C          14.2593   38.4132   30.3502 C.ar    1  UNL1       -0.0042
     13 C          15.6342   38.3520   30.2523 C.ar    1  UNL1        0.0012
     14 C          12.1645   39.2298   31.4487 C.3     1  UNL1        0.0310
     15 C          18.1084   39.5427   33.5014 C.2     1  UNL1        0.3438
     16 O          17.9143   38.6562   34.3099 O.2     1  UNL1       -0.2448
     17 O          17.7721   40.8131   33.8005 O.3     1  UNL1       -0.4454
     18 C          19.1982   41.4321   35.6750 C.3     1  UNL1        0.0513
     19 C          18.8460   41.7003   34.2103 C.3     1  UNL1        0.2089
     20 N          20.3859   38.3628   28.5877 N.pl3   1  UNL1       -0.5929
     21 C          21.5230   39.0320   28.1796 C.ar    1  UNL1       -0.0059
     22 N          22.5839   38.5536   27.5468 N.ar    1  UNL1       -0.2669
     23 C          23.5923   39.3201   27.2246 C.ar    1  UNL1        0.0700
     24 C          23.5190   40.6637   27.5677 C.ar    1  UNL1        0.1182
     25 S          21.9179   40.7132   28.3602 S.2     1  UNL1       -0.0852
     26 C          24.7942   38.7643   26.5051 C.3     1  UNL1        0.0528
     27 C          24.4525   41.7078   27.3450 C.2     1  UNL1        0.3485
     28 O          24.5859   42.1772   26.2304 O.2     1  UNL1       -0.2443
     29 O          25.1927   42.1808   28.3693 O.3     1  UNL1       -0.4451
     30 C          25.2036   43.5967   28.5622 C.3     1  UNL1        0.2089
     31 C          23.8778   44.0366   29.1865 C.3     1  UNL1        0.0513
@<TRIPOS>UNITY_ATOM_ATTR
20 1
charge -1
@<TRIPOS>BOND
     1    18    19    1
     2    19    17    1
     3    17    15    1
     4    15    16    2
     5    15     1    1
     6     1     6   ar
     7     1     2   ar
     8     2     3   ar
     9     2     7    1
    10     3     4   ar
    11     4     5   ar
    12     4    20    1
    13     5     6   ar
    14     6     8    1
    15     8    13   ar
    16     8     9   ar
    17     9    10   ar
    18    10    11   ar
    19    11    12   ar
    20    11    14    1
    21    12    13   ar
    22    20    21    1
    23    21    25   ar
    24    21    22   ar
    25    22    23   ar
    26    23    24   ar
    27    23    26    1
    28    24    25   ar
    29    24    27    1
    30    27    28    2
    31    27    29    1
    32    29    30    1
    33    30    31    1
@<TRIPOS>MOLECULE
ZINC01723438
 33 36 0 0 0
SMALL
GASTEIGER

@<TRIPOS>ATOM
      1 C          15.2761   37.6147   29.5944 C.3     1  UNL1        0.2568
      2 C          13.9304   38.3803   29.5990 C.3     1  UNL1        0.2719
      3 C          13.1451   37.6312   28.5359 C.2     1  UNL1        0.2066
      4 C          14.0071   36.9045   27.8491 C.2     1  UNL1        0.2091
      5 O          15.2871   37.0440   28.2715 O.2     1  UNL1       -0.4651
      6 C          16.4523   38.5743   29.7862 C.3     1  UNL1        0.2562
      7 O          17.1800   38.2136   30.9898 O.3     1  UNL1       -0.4413
      8 C          18.5000   38.4820   31.0100 C.2     1  UNL1        0.3413
      9 O          19.1617   38.3518   29.9997 O.2     1  UNL1       -0.2449
     10 C          20.3477   39.7832   34.6054 C.ar    1  UNL1        0.0000
     11 C          19.6242   38.6039   34.5905 C.ar    1  UNL1        0.0002
     12 C          19.0212   38.1754   33.4262 C.ar    1  UNL1        0.0064
     13 C          19.1426   38.9347   32.2607 C.ar    1  UNL1        0.0756
     14 C          19.8790   40.1209   32.2813 C.ar    1  UNL1        0.0064
     15 C          20.4724   40.5402   33.4538 C.ar    1  UNL1        0.0002
     16 O          11.8029   37.6967   28.3303 O.3     1  UNL1       -0.4184
     17 C          11.3118   37.0152   27.2780 C.2     1  UNL1        0.3456
     18 O          11.1874   35.8082   27.3405 O.2     1  UNL1       -0.2445
     19 C          10.9243   37.7350   26.0477 C.ar    1  UNL1        0.0760
     20 C          10.7369   39.1185   26.0740 C.ar    1  UNL1        0.0065
     21 C          10.3802   39.7850   24.9202 C.ar    1  UNL1        0.0002
     22 C          10.1979   39.0845   23.7410 C.ar    1  UNL1        0.0000
     23 C          10.3763   37.7128   23.7091 C.ar    1  UNL1        0.0002
     24 C          10.7382   37.0343   24.8543 C.ar    1  UNL1        0.0065
     25 O          13.2797   38.2800   30.8931 O.3     1  UNL1       -0.4373
     26 C          13.2033   39.4063   31.6282 C.2     1  UNL1        0.3416
     27 O          12.1594   40.0250   31.6849 O.2     1  UNL1       -0.2449
     28 C          14.3889   39.8892   32.3654 C.ar    1  UNL1        0.0757
     29 C          14.9505   41.1293   32.0552 C.ar    1  UNL1        0.0064
     30 C          16.0574   41.5742   32.7479 C.ar    1  UNL1        0.0002
     31 C          16.6110   40.7945   33.7480 C.ar    1  UNL1        0.0000
     32 C          16.0631   39.5621   34.0566 C.ar    1  UNL1        0.0002
     33 C          14.9527   39.1075   33.3757 C.ar    1  UNL1        0.0064
@<TRIPOS>BOND
     1    10    15   ar
     2    10    11   ar
     3    11    12   ar
     4    12    13   ar
     5    13    14   ar
     6    13     8    1
     7    14    15   ar
     8     8     9    2
     9     8     7    1
    10     7     6    1
    11     6     1    1
    12     1     5    1
    13     1     2    1
    14     2     3    1
    15     2    25    1
    16     3     4    2
    17     3    16    1
    18     4     5    1
    19    16    17    1
    20    17    18    2
    21    17    19    1
    22    19    24   ar
    23    19    20   ar
    24    20    21   ar
    25    21    22   ar
    26    22    23   ar
    27    23    24   ar
    28    25    26    1
    29    26    27    2
    30    26    28    1
    31    28    33   ar
    32    28    29   ar
    33    29    30   ar
    34    30    31   ar
    35    31    32   ar
    36    32    33   ar
@<TRIPOS>MOLECULE
ZINC09764556
 33 36 0 0 0
SMALL
GASTEIGER

@<TRIPOS>ATOM
      1 C          20.7870   37.7699   28.6655 C.2     1  UNL1        0.2871
      2 O          20.4902   36.7351   28.1017 O.2     1  UNL1       -0.2665
      3 N          21.8179   38.5114   28.2141 N.am    1  UNL1       -0.2690
      4 C          15.6710   39.7456   33.4683 C.3     1  UNL1        0.0522
      5 C          17.0285   39.4458   32.8866 C.ar    1  UNL1        0.0637
      6 C          18.1760   39.6081   33.6750 C.ar    1  UNL1        0.0296
      7 C          19.3924   39.3341   33.1402 C.ar    1  UNL1        0.0652
      8 N          19.4660   38.9096   31.8485 N.ar    1  UNL1       -0.1990
      9 C          18.3261   38.7620   31.1056 C.ar    1  UNL1        0.2540
     10 N          17.1299   39.0346   31.6442 N.ar    1  UNL1       -0.2143
     11 N          18.6885   38.3467   29.9006 N.ar    1  UNL1       -0.1850
     12 C          20.0158   38.2160   29.8488 C.ar    1  UNL1        0.2387
     13 N          20.5342   38.5519   31.0154 N.ar    1  UNL1       -0.1385
     14 C          20.6440   39.4981   33.9636 C.3     1  UNL1        0.0523
     15 C          22.2333   39.7106   28.9460 C.3     1  UNL1        0.0988
     16 C          22.0077   40.9456   28.0715 C.3     1  UNL1        0.0479
     17 C          23.0316   41.9972   28.4135 C.ar    1  UNL1       -0.0205
     18 C          22.6390   43.3096   28.5990 C.ar    1  UNL1       -0.0042
     19 C          23.5776   44.2732   28.9175 C.ar    1  UNL1       -0.0003
     20 C          24.9101   43.9263   29.0406 C.ar    1  UNL1       -0.0000
     21 C          25.3034   42.6150   28.8494 C.ar    1  UNL1       -0.0003
     22 C          24.3641   41.6503   28.5361 C.ar    1  UNL1       -0.0042
     23 C          22.5230   38.1185   26.9916 C.3     1  UNL1        0.1235
     24 C          24.0087   38.1263   27.2441 C.ar    1  UNL1        0.0317
     25 C          24.5253   37.4806   28.3509 C.ar    1  UNL1        0.0004
     26 C          25.8882   37.4872   28.5828 C.ar    1  UNL1       -0.0001
     27 C          26.7376   38.1393   27.7079 C.ar    1  UNL1        0.0031
     28 C          26.2266   38.7818   26.5972 C.ar    1  UNL1        0.0366
     29 C          24.8586   38.7815   26.3652 C.ar    1  UNL1        0.1366
     30 O          24.3529   39.4175   25.2759 O.3     1  UNL1       -0.4709
     31 C          25.2546   40.2309   24.5227 C.3     1  UNL1        0.2318
     32 C          25.0018   41.6832   24.8355 C.2     1  UNL1        0.0207
     33 C          25.9821   42.4424   25.2586 C.2     1  UNL1       -0.0011
@<TRIPOS>BOND
     1     4     5    1
     2     5    10   ar
     3     5     6   ar
     4     6     7   ar
     5     7     8   ar
     6     7    14    1
     7     8    13   ar
     8     8     9   ar
     9     9    10   ar
    10     9    11   ar
    11    11    12   ar
    12    12    13   ar
    13    12     1    1
    14     1     2    2
    15     1     3   am
    16     3    15    1
    17     3    23    1
    18    15    16    1
    19    16    17    1
    20    17    22   ar
    21    17    18   ar
    22    18    19   ar
    23    19    20   ar
    24    20    21   ar
    25    21    22   ar
    26    23    24    1
    27    24    29   ar
    28    24    25   ar
    29    25    26   ar
    30    26    27   ar
    31    27    28   ar
    32    28    29   ar
    33    29    30    1
    34    30    31    1
    35    31    32    1
    36    32    33    2
@<TRIPOS>MOLECULE
ZINC22201344
 33 35 0 0 0
SMALL
GASTEIGER

@<TRIPOS>ATOM
      1 C          21.4404   38.9208   28.2769 C.2     1  UNL1        0.2664
      2 O          20.6569   39.2601   27.4156 O.2     1  UNL1       -0.2710
      3 N          22.6595   39.4918   28.3418 N.am    1  UNL1       -0.2690
      4 C          23.6060   39.0819   29.3821 C.3     1  UNL1        0.1155
      5 C          21.0532   37.8562   29.2708 C.3     1  UNL1        0.2446
      6 C          21.3463   36.4758   28.6797 C.3     1  UNL1        0.0575
      7 O          19.6361   37.9644   29.5683 O.3     1  UNL1       -0.4386
      8 C          19.2982   38.5682   30.7242 C.2     1  UNL1        0.3612
      9 O          20.1633   38.9230   31.4996 O.2     1  UNL1       -0.2431
     10 N          15.7060   38.7994   30.3615 N.ar    1  UNL1       -0.2165
     11 C          15.2609   39.1992   31.5673 C.ar    1  UNL1        0.2765
     12 O          14.0679   39.3682   31.7563 O.2     1  UNL1       -0.2655
     13 C          16.1849   39.4220   32.6125 C.ar    1  UNL1        0.0640
     14 C          17.5072   39.2195   32.3501 C.ar    1  UNL1        0.0324
     15 C          17.8752   38.7988   31.0489 C.ar    1  UNL1        0.1764
     16 N          16.9552   38.6179   30.1275 N.ar    1  UNL1       -0.1602
     17 C          14.7389   38.5714   29.2848 C.3     1  UNL1        0.1307
     18 C          14.5806   37.0676   29.0517 C.3     1  UNL1        0.0265
     19 C          12.3371   37.1689   27.9566 C.3     1  UNL1        0.0001
     20 C          13.8148   36.8315   27.7483 C.3     1  UNL1        0.0021
     21 C          23.0382   40.5224   27.3719 C.3     1  UNL1        0.1206
     22 C          23.5643   41.7308   28.1026 C.ar    1  UNL1       -0.0001
     23 C          24.9031   41.8068   28.4384 C.ar    1  UNL1       -0.0023
     24 C          25.3865   42.9175   29.1045 C.ar    1  UNL1       -0.0003
     25 C          24.5292   43.9476   29.4435 C.ar    1  UNL1       -0.0000
     26 C          23.1894   43.8691   29.1127 C.ar    1  UNL1       -0.0003
     27 C          22.7069   42.7608   28.4420 C.ar    1  UNL1       -0.0023
     28 C          24.1081   39.9830   26.4577 C.ar    1  UNL1       -0.0001
     29 C          24.5456   38.6794   26.5995 C.ar    1  UNL1       -0.0023
     30 C          25.5236   38.1832   25.7579 C.ar    1  UNL1       -0.0003
     31 C          26.0710   38.9937   24.7809 C.ar    1  UNL1       -0.0000
     32 C          25.6374   40.2989   24.6428 C.ar    1  UNL1       -0.0003
     33 C          24.6558   40.7936   25.4810 C.ar    1  UNL1       -0.0023
@<TRIPOS>BOND
     1    19    20    1
     2    20    18    1
     3    18    17    1
     4    17    10    1
     5    10    16   ar
     6    10    11   ar
     7    11    12    2
     8    11    13   ar
     9    13    14   ar
    10    14    15   ar
    11    15    16   ar
    12    15     8    1
    13     8     9    2
    14     8     7    1
    15     7     5    1
    16     5     6    1
    17     5     1    1
    18     1     2    2
    19     1     3   am
    20     3     4    1
    21     3    21    1
    22    21    22    1
    23    21    28    1
    24    22    27   ar
    25    22    23   ar
    26    23    24   ar
    27    24    25   ar
    28    25    26   ar
    29    26    27   ar
    30    28    33   ar
    31    28    29   ar
    32    29    30   ar
    33    30    31   ar
    34    31    32   ar
    35    32    33   ar
@<TRIPOS>MOLECULE
ZINC01902729
 33 36 0 0 0
SMALL
GASTEIGER

@<TRIPOS>ATOM
      1 C          26.9988   35.2697   28.8037 C.ar    1  UNL1        0.0120
      2 C          27.1260   33.9321   28.5581 C.ar    1  UNL1        0.0018
      3 C          27.0195   33.4530   27.2505 C.ar    1  UNL1        0.0348
      4 C          27.1459   32.0155   26.9574 C.ar    1  UNL1        0.0094
      5 C          27.0351   31.6127   25.6401 C.ar    1  UNL1        0.0824
      6 C          26.8089   32.5727   24.6392 C.ar    1  UNL1        0.3459
      7 O          26.7124   32.2088   23.4804 O.2     1  UNL1       -0.2445
      8 O          26.6957   33.8794   24.9244 O.2     1  UNL1       -0.4209
      9 C          26.7931   34.3451   26.1881 C.ar    1  UNL1        0.1517
     10 C          26.6715   35.7010   26.4530 C.ar    1  UNL1        0.0741
     11 C          26.7740   36.1597   27.7564 C.ar    1  UNL1        0.1382
     12 C          27.3846   31.0341   28.0385 C.ar    1  UNL1        0.0003
     13 C          28.5571   31.0937   28.7930 C.ar    1  UNL1        0.0000
     14 C          28.7712   30.1788   29.8031 C.ar    1  UNL1        0.0000
     15 C          27.8316   29.1965   30.0612 C.ar    1  UNL1        0.0000
     16 C          26.6694   29.1285   29.3134 C.ar    1  UNL1        0.0000
     17 C          26.4406   30.0409   28.3044 C.ar    1  UNL1        0.0000
     18 C          27.1086   35.7859   30.2153 C.3     1  UNL1        0.0294
     19 C          26.5066   34.7630   31.1807 C.3     1  UNL1        0.0048
     20 C          25.0955   35.2034   31.5757 C.3     1  UNL1        0.0003
     21 C          25.0837   35.6162   33.0488 C.3     1  UNL1        0.0000
     22 C          27.1571   36.4420   34.1720 C.3     1  UNL1        0.0000
     23 C          26.3998   35.1967   33.7066 C.3     1  UNL1        0.0000
     24 O          26.6547   37.4872   28.0145 O.3     1  UNL1       -0.4675
     25 C          25.5614   38.1720   27.3998 C.3     1  UNL1        0.2689
     26 C          24.3192   37.9843   28.2322 C.ar    1  UNL1        0.1669
     27 C          24.2499   38.0918   29.5778 C.ar    1  UNL1        0.0399
     28 C          22.9185   37.8432   29.9441 C.ar    1  UNL1        0.0416
     29 C          22.2334   37.5934   28.7886 C.ar    1  UNL1        0.1589
     30 O          23.1014   37.6891   27.7600 O.2     1  UNL1       -0.4529
     31 C          20.8061   37.2814   28.6844 C.2     1  UNL1        0.1076
     32 O          20.0127   37.8022   29.4448 O.co2   1  UNL1       -0.5415
     33 O          20.3716   36.4163   27.7448 O.co2   1  UNL1       -0.5415
@<TRIPOS>UNITY_ATOM_ATTR
33 1
charge -1
@<TRIPOS>BOND
     1    22    23    1
     2    23    21    1
     3    21    20    1
     4    20    19    1
     5    19    18    1
     6    18     1    1
     7     1    11   ar
     8     1     2   ar
     9     2     3   ar
    10     3     9   ar
    11     3     4   ar
    12     4     5   ar
    13     4    12    1
    14     5     6   ar
    15     6     7    2
    16     6     8   ar
    17     8     9   ar
    18     9    10   ar
    19    10    11   ar
    20    11    24    1
    21    24    25    1
    22    25    26    1
    23    26    30   ar
    24    26    27   ar
    25    27    28   ar
    26    28    29   ar
    27    29    30   ar
    28    29    31    1
    29    31    32   ar
    30    31    33   ar
    31    12    17   ar
    32    12    13   ar
    33    13    14   ar
    34    14    15   ar
    35    15    16   ar
    36    16    17   ar
@<TRIPOS>MOLECULE
ZINC13810907
 31 33 0 0 0
SMALL
GASTEIGER

@<TRIPOS>ATOM
      1 C          23.9965   40.0492   27.8215 C.ar    1  UNL1        0.1379
      2 C          25.1790   39.8887   27.0615 C.ar    1  UNL1        0.0887
      3 C          25.9503   41.0386   26.7683 C.ar    1  UNL1        0.2685
      4 O          26.9787   40.9464   26.1204 O.2     1  UNL1       -0.2665
      5 N          25.5253   42.2403   27.2146 N.ar    1  UNL1       -0.2579
      6 C          26.2590   43.3540   26.9322 C.ar    1  UNL1        0.0843
      7 C          25.8646   44.5715   27.3679 C.ar    1  UNL1        0.0189
      8 C          24.6887   44.7023   28.1195 C.ar    1  UNL1        0.0003
      9 C          23.9476   43.5946   28.4067 C.ar    1  UNL1        0.0128
     10 C          24.3736   42.3362   27.9450 C.ar    1  UNL1        0.1473
     11 N          23.6422   41.2587   28.2310 N.ar    1  UNL1       -0.2134
     12 C          22.6811   43.7176   29.2140 C.3     1  UNL1        0.0342
     13 C          25.5833   38.6104   26.6108 C.2     1  UNL1        0.0187
     14 C          26.4175   37.8489   27.3771 C.2     1  UNL1        0.0852
     15 C          26.8628   36.5112   27.1764 C.2     1  UNL1        0.2595
     16 O          26.5043   35.8709   26.2037 O.2     1  UNL1       -0.2690
     17 N          27.6804   35.9859   28.0722 N.am    1  UNL1       -0.2441
     18 C          28.0820   36.6982   29.1485 C.2     1  UNL1        0.1212
     19 S          29.1243   36.2243   30.4213 S.2     1  UNL1       -0.0272
     20 S          27.2481   38.2593   28.9058 S.3     1  UNL1       -0.0604
     21 C          28.1577   34.6121   27.8962 C.3     1  UNL1        0.0994
     22 C          27.0109   33.6354   28.1645 C.3     1  UNL1        0.0203
     23 C          27.1238   32.4424   27.2133 C.3     1  UNL1        0.0018
     24 C          27.0882   33.1434   29.6112 C.3     1  UNL1        0.0018
     25 N          23.2190   38.9556   28.1342 N.pl3   1  UNL1       -0.2931
     26 C          23.3470   38.6078   29.5557 C.3     1  UNL1        0.0922
     27 C          24.4095   36.8457   30.9730 C.3     1  UNL1        0.0018
     28 C          23.6158   37.1078   29.6914 C.3     1  UNL1        0.0215
     29 C          21.8141   39.1881   27.7737 C.3     1  UNL1        0.0922
     30 C          21.2595   37.9534   27.0604 C.3     1  UNL1        0.0215
     31 C          22.1346   37.6287   25.8481 C.3     1  UNL1        0.0018
@<TRIPOS>BOND
     1    27    28    1
     2    28    26    1
     3    26    25    1
     4    25    29    1
     5    25     1    1
     6    29    30    1
     7    30    31    1
     8     1    11   ar
     9     1     2   ar
    10     2     3   ar
    11     2    13    1
    12     3     4    2
    13     3     5   ar
    14     5    10   ar
    15     5     6   ar
    16     6     7   ar
    17     7     8   ar
    18     8     9   ar
    19     9    10   ar
    20     9    12    1
    21    10    11   ar
    22    13    14    2
    23    14    20    1
    24    14    15    1
    25    15    16    2
    26    15    17   am
    27    17    18    1
    28    17    21    1
    29    18    19    2
    30    18    20    1
    31    21    22    1
    32    22    23    1
    33    22    24    1
@<TRIPOS>MOLECULE
ZINC01405899
 31 33 0 0 0
SMALL
GASTEIGER

@<TRIPOS>ATOM
      1 C          15.1357   39.2186   31.9249 C.ar    1  UNL1        0.1804
      2 C          16.1496   38.7843   30.9563 C.ar    1  UNL1        0.0766
      3 C          17.3746   39.0118   31.5450 C.ar    1  UNL1        0.1430
      4 N          17.1553   39.5338   32.7702 N.ar    1  UNL1       -0.2188
      5 N          15.7799   39.6510   32.9903 N.ar    1  UNL1       -0.1576
      6 CL         18.9252   38.6854   30.8361 Cl      1  UNL1       -0.0612
      7 C          18.1533   39.9025   33.6815 C.ar    1  UNL1        0.0838
      8 C          18.9941   38.9377   34.2207 C.ar    1  UNL1        0.0192
      9 C          19.9802   39.3051   35.1152 C.ar    1  UNL1        0.0015
     10 C          20.1240   40.6306   35.4821 C.ar    1  UNL1        0.0001
     11 C          19.2850   41.5930   34.9510 C.ar    1  UNL1        0.0015
     12 C          18.3004   41.2328   34.0519 C.ar    1  UNL1        0.0192
     13 C          13.6735   39.1754   31.7421 C.2     1  UNL1        0.3611
     14 O          13.0197   40.1957   31.8309 O.2     1  UNL1       -0.2431
     15 C          11.7929   38.0677   30.7737 C.3     1  UNL1        0.2560
     16 O          13.0621   38.0042   31.4764 O.3     1  UNL1       -0.4402
     17 C          15.9058   38.2220   29.6169 C.2     1  UNL1        0.1449
     18 N          14.8757   38.6051   28.9312 N.2     1  UNL1       -0.0714
     19 O          14.6741   38.1402   27.8237 O.3     1  UNL1       -0.3113
     20 C          13.8468   37.0808   27.7467 C.2     1  UNL1        0.3675
     21 O          14.1311   36.0455   28.3155 O.2     1  UNL1       -0.2425
     22 C          12.5934   37.1771   26.9708 C.ar    1  UNL1        0.0779
     23 C          11.6493   36.1500   27.0329 C.ar    1  UNL1        0.0065
     24 C          10.4811   36.2466   26.3062 C.ar    1  UNL1        0.0002
     25 C          10.2434   37.3581   25.5168 C.ar    1  UNL1        0.0039
     26 C          11.1770   38.3767   25.4462 C.ar    1  UNL1        0.0716
     27 C          12.3472   38.2957   26.1723 C.ar    1  UNL1        0.0104
     28 C          10.9124   39.5801   24.5785 C.3     1  UNL1        0.4186
     29 F          10.0072   39.2369   23.5685 F       1  UNL1       -0.1659
     30 F          10.3726   40.6081   25.3590 F       1  UNL1       -0.1659
     31 F          12.1117   40.0125   24.0025 F       1  UNL1       -0.1659
@<TRIPOS>BOND
     1    15    16    1
     2    16    13    1
     3    13    14    2
     4    13     1    1
     5     1     5   ar
     6     1     2   ar
     7     2     3   ar
     8     2    17    1
     9     3     4   ar
    10     3     6    1
    11     4     5   ar
    12     4     7    1
    13     7    12   ar
    14     7     8   ar
    15     8     9   ar
    16     9    10   ar
    17    10    11   ar
    18    11    12   ar
    19    17    18    2
    20    18    19    1
    21    19    20    1
    22    20    21    2
    23    20    22    1
    24    22    27   ar
    25    22    23   ar
    26    23    24   ar
    27    24    25   ar
    28    25    26   ar
    29    26    27   ar
    30    26    28    1
    31    28    29    1
    32    28    30    1
    33    28    31    1
@<TRIPOS>MOLECULE
ZINC12007204
 31 34 0 0 0
SMALL
GASTEIGER

@<TRIPOS>ATOM
      1 S          25.3700   38.6844   29.3068 S.O2    1  UNL1        0.0681
      2 O          24.1357   38.3527   29.9277 O.2     1  UNL1       -0.1526
      3 O          26.4071   39.3724   29.9926 O.2     1  UNL1       -0.1526
      4 C          25.9491   40.2756   27.0706 C.3     1  UNL1        0.1114
      5 C          25.0609   40.9407   25.9962 C.3     1  UNL1        0.1613
      6 O          23.8348   40.1740   26.0438 O.3     1  UNL1       -0.3417
      7 C          23.6535   39.8945   27.4488 C.3     1  UNL1        0.1586
      8 N          24.9998   39.5940   27.9735 N.3     1  UNL1       -0.1330
      9 C          23.0693   41.1162   28.1609 C.3     1  UNL1        0.0484
     10 C          26.3519   42.7265   27.3409 C.3     1  UNL1        0.0016
     11 C          26.7464   41.3335   27.8359 C.3     1  UNL1        0.0204
     12 C          22.7330   38.6863   27.6326 C.3     1  UNL1        0.0445
     13 C          21.3060   39.1685   27.9011 C.3     1  UNL1        0.0039
     14 C          20.6121   38.1992   28.8602 C.3     1  UNL1        0.0001
     15 C          21.2425   36.8114   28.7275 C.3     1  UNL1        0.0000
     16 C          20.7760   38.6986   30.2971 C.3     1  UNL1        0.0000
     17 C          26.0655   37.1721   28.7290 C.ar    1  UNL1        0.1606
     18 C          26.3901   36.8833   27.4504 C.ar    1  UNL1        0.1164
     19 N          26.8925   35.6300   27.4196 N.ar    1  UNL1       -0.2500
     20 N          26.8744   35.1199   28.7240 N.ar    1  UNL1       -0.1674
     21 C          26.3817   36.0479   29.5193 C.ar    1  UNL1        0.1269
     22 C          26.1880   35.9289   30.9810 C.ar    1  UNL1        0.0502
     23 C          25.1275   35.4063   31.6707 C.ar    1  UNL1        0.0086
     24 C          25.1722   35.3983   33.0483 C.ar    1  UNL1        0.0075
     25 C          26.2572   35.9172   33.6775 C.ar    1  UNL1        0.0355
     26 S          27.2733   36.4362   32.3047 S.2     1  UNL1       -0.0848
     27 C          27.3679   34.9238   26.2273 C.3     1  UNL1        0.1053
     28 C          26.4985   35.2926   24.9953 C.3     1  UNL1        0.0244
     29 C          26.7111   34.0789   24.0567 C.3     1  UNL1        0.0021
     30 C          26.7553   32.8647   25.0073 C.3     1  UNL1        0.0021
     31 C          27.1729   33.4020   26.3875 C.3     1  UNL1        0.0244
@<TRIPOS>BOND
     1    10    11    1
     2    11     4    1
     3     4     8    1
     4     4     5    1
     5     5     6    1
     6     6     7    1
     7     7     8    1
     8     7     9    1
     9     7    12    1
    10     8     1    1
    11     1     2    2
    12     1     3    2
    13     1    17    1
    14    17    21   ar
    15    17    18   ar
    16    18    19   ar
    17    19    20   ar
    18    19    27    1
    19    20    21   ar
    20    21    22    1
    21    22    26   ar
    22    22    23   ar
    23    23    24   ar
    24    24    25   ar
    25    25    26   ar
    26    27    31    1
    27    27    28    1
    28    28    29    1
    29    29    30    1
    30    30    31    1
    31    12    13    1
    32    13    14    1
    33    14    15    1
    34    14    16    1
@<TRIPOS>MOLECULE
ZINC20480110
 31 35 0 0 0
SMALL
GASTEIGER

@<TRIPOS>ATOM
      1 C          24.0270   38.9803   29.0356 C.ar    1  UNL1        0.1782
      2 N          25.2419   39.4742   28.9762 N.ar    1  UNL1       -0.2155
      3 C          25.4748   40.7555   28.7002 C.ar    1  UNL1        0.1151
      4 C          24.4409   41.6718   28.4639 C.ar    1  UNL1        0.0564
      5 C          24.8524   43.0443   28.1809 C.ar    1  UNL1       -0.0152
      6 C          26.1798   43.2972   28.1728 C.ar    1  UNL1        0.0049
      7 S          26.9433   41.7401   28.5383 S.2     1  UNL1       -0.0725
      8 C          26.8526   44.6098   27.9113 C.3     1  UNL1        0.0327
      9 C          25.8254   45.5640   27.2852 C.3     1  UNL1        0.0055
     10 C          24.5360   45.5076   28.1096 C.3     1  UNL1        0.0050
     11 C          23.8462   44.1584   27.9051 C.3     1  UNL1        0.0267
     12 C          23.0746   41.1095   28.5372 C.ar    1  UNL1        0.1738
     13 N          22.9281   39.7700   28.8245 N.ar    1  UNL1       -0.2482
     14 C          21.5783   39.5437   28.8262 C.ar    1  UNL1        0.1987
     15 N          20.9930   40.6872   28.5551 N.ar    1  UNL1       -0.1217
     16 N          21.8739   41.6110   28.3846 N.ar    1  UNL1       -0.1278
     17 S          23.8057   37.2708   29.4009 S.3     1  UNL1       -0.0769
     18 C          24.9961   37.0813   30.7511 C.3     1  UNL1        0.0651
     19 C          25.7827   35.7831   30.5590 C.3     1  UNL1        0.0121
     20 C          25.0979   35.6362   32.9573 C.3     1  UNL1        0.0000
     21 C          25.4817   34.8283   31.7161 C.3     1  UNL1        0.0009
     22 S          20.7763   38.0053   29.1337 S.3     1  UNL1       -0.0690
     23 C          19.6249   38.3733   30.4862 C.3     1  UNL1        0.1259
     24 C          20.3960   38.9752   31.6629 C.3     1  UNL1        0.1178
     25 N          19.5506   39.9612   32.3492 N.4     1  UNL1        0.2804
     26 C          20.1413   40.3569   33.6360 C.3     1  UNL1        0.1381
     27 C          19.2611   41.4265   34.2880 C.3     1  UNL1        0.2029
     28 O          17.9325   40.9183   34.4356 O.3     1  UNL1       -0.3412
     29 C          17.3265   40.5239   33.2017 C.3     1  UNL1        0.2029
     30 C          18.1871   39.4451   32.5385 C.3     1  UNL1        0.1381
     31 H          19.4957   40.7906   31.7580 H       1  UNL1        0.2069
@<TRIPOS>UNITY_ATOM_ATTR
25 1
charge 1
@<TRIPOS>BOND
     1    20    21    1
     2    21    19    1
     3    19    18    1
     4    18    17    1
     5    17     1    1
     6     1    13   ar
     7     1     2   ar
     8     2     3   ar
     9     3     7   ar
    10     3     4   ar
    11     4     5   ar
    12     4    12   ar
    13     5    11    1
    14     5     6   ar
    15     6     7   ar
    16     6     8    1
    17     8     9    1
    18     9    10    1
    19    10    11    1
    20    12    16   ar
    21    12    13   ar
    22    13    14   ar
    23    14    15   ar
    24    14    22    1
    25    15    16   ar
    26    22    23    1
    27    23    24    1
    28    24    25    1
    29    25    30    1
    30    25    26    1
    31    26    27    1
    32    27    28    1
    33    28    29    1
    34    29    30    1
    35    25    31    1
@<TRIPOS>MOLECULE
ZINC31240853
 34 38 0 0 0
SMALL
GASTEIGER

@<TRIPOS>ATOM
      1 C          22.4070   37.7542   29.0773 C.ar    1  UNL1        0.0817
      2 C          23.0930   36.8839   29.9182 C.ar    1  UNL1        0.0257
      3 C          24.4068   37.1849   30.2884 C.ar    1  UNL1        0.0831
      4 N          25.0120   38.2785   29.8556 N.ar    1  UNL1       -0.2268
      5 C          24.4083   39.1414   29.0533 C.ar    1  UNL1        0.1615
      6 C          23.0819   38.9144   28.6315 C.ar    1  UNL1        0.0626
      7 C          22.7214   39.9923   27.7965 C.ar    1  UNL1        0.1234
      8 N          23.7329   40.8089   27.7114 N.ar    1  UNL1       -0.1660
      9 N          24.8004   40.3213   28.4746 N.ar    1  UNL1       -0.2262
     10 C          25.1381   36.2579   31.1855 C.ar    1  UNL1        0.0177
     11 C          26.0488   35.3450   30.6563 C.ar    1  UNL1        0.0015
     12 C          26.7303   34.4883   31.4966 C.ar    1  UNL1        0.0000
     13 C          26.5026   34.5264   32.8605 C.ar    1  UNL1        0.0000
     14 C          25.5961   35.4267   33.3908 C.ar    1  UNL1        0.0000
     15 C          24.9130   36.2921   32.5608 C.ar    1  UNL1        0.0015
     16 C          21.0169   37.4747   28.6619 C.2     1  UNL1        0.3419
     17 O          20.7734   36.5099   27.9653 O.2     1  UNL1       -0.2449
     18 O          20.0193   38.2901   29.0558 O.3     1  UNL1       -0.4350
     19 C          19.8127   38.4358   30.4856 C.3     1  UNL1        0.2956
     20 C          16.5129   39.2314   31.6549 C.ar    1  UNL1        0.1797
     21 N          17.8382   39.1591   31.8723 N.ar    1  UNL1       -0.1918
     22 C          18.3540   38.6982   30.7582 C.ar    1  UNL1        0.2810
     23 O          17.3381   38.5004   29.9126 O.2     1  UNL1       -0.3334
     24 N          16.2935   38.8115   30.4449 N.ar    1  UNL1       -0.0605
     25 C          15.7961   39.1584   34.0277 C.3     1  UNL1        0.0077
     26 C          15.4729   39.7069   32.6364 C.3     1  UNL1        0.0557
     27 C          15.4728   41.2363   32.6785 C.3     1  UNL1        0.0077
     28 C          14.0939   39.2085   32.1996 C.3     1  UNL1        0.0077
     29 C          26.1114   40.9579   28.6240 C.3     1  UNL1        0.1930
     30 C          25.9401   42.4542   28.6771 C.ar    1  UNL1        0.1476
     31 C          26.2966   43.3216   27.7127 C.ar    1  UNL1        0.0382
     32 C          25.9545   44.6127   28.1761 C.ar    1  UNL1        0.0435
     33 C          25.4172   44.4580   29.3996 C.ar    1  UNL1        0.1792
     34 O          25.4110   43.1484   29.6978 O.2     1  UNL1       -0.4527
@<TRIPOS>BOND
     1    25    26    1
     2    26    27    1
     3    26    28    1
     4    26    20    1
     5    20    24   ar
     6    20    21   ar
     7    21    22   ar
     8    22    23   ar
     9    22    19    1
    10    23    24   ar
    11    19    18    1
    12    18    16    1
    13    16    17    2
    14    16     1    1
    15     1     6   ar
    16     1     2   ar
    17     2     3   ar
    18     3     4   ar
    19     3    10    1
    20     4     5   ar
    21     5     9   ar
    22     5     6   ar
    23     6     7   ar
    24     7     8   ar
    25     8     9   ar
    26     9    29    1
    27    29    30    1
    28    30    34   ar
    29    30    31   ar
    30    31    32   ar
    31    32    33   ar
    32    33    34   ar
    33    10    15   ar
    34    10    11   ar
    35    11    12   ar
    36    12    13   ar
    37    13    14   ar
    38    14    15   ar
@<TRIPOS>MOLECULE
ZINC09568369
 31 34 0 0 0
SMALL
GASTEIGER

@<TRIPOS>ATOM
      1 C          18.1675   38.8826   30.9882 C.ar    1  UNL1        0.1744
      2 N          17.4472   38.3253   30.0356 N.ar    1  UNL1       -0.2158
      3 C          16.1208   38.3128   30.1071 C.ar    1  UNL1        0.1168
      4 C          15.4271   38.8823   31.1845 C.ar    1  UNL1        0.0763
      5 C          13.9587   38.7910   31.1276 C.ar    1  UNL1       -0.0136
      6 C          13.4296   38.1781   30.0568 C.ar    1  UNL1        0.0049
      7 S          14.8252   37.6872   29.0704 S.2     1  UNL1       -0.0725
      8 C          11.9254   38.1483   30.1045 C.3     1  UNL1        0.0330
      9 C          11.5499   39.2164   31.1549 C.3     1  UNL1        0.0099
     10 C          12.8135   39.2459   32.0369 C.3     1  UNL1        0.0271
     11 C          16.2324   39.4804   32.2040 C.ar    1  UNL1        0.2640
     12 O          15.7138   40.0000   33.1774 O.2     1  UNL1       -0.2669
     13 N          17.5722   39.4556   32.0745 N.ar    1  UNL1       -0.2730
     14 S          19.9250   38.8816   30.8611 S.3     1  UNL1       -0.0689
     15 C          20.1099   38.8729   29.0606 C.3     1  UNL1        0.1339
     16 C          20.8826   37.6491   28.6409 C.2     1  UNL1        0.1854
     17 O          20.2920   36.6350   28.3322 O.2     1  UNL1       -0.2904
     18 C          25.7801   37.5082   30.0394 C.3     1  UNL1        0.0500
     19 C          24.5064   37.6179   29.2414 C.ar    1  UNL1        0.0372
     20 C          23.2635   37.5099   29.7399 C.ar    1  UNL1        0.0167
     21 C          22.3463   37.6836   28.6056 C.ar    1  UNL1        0.0483
     22 C          23.1484   37.8859   27.4984 C.ar    1  UNL1        0.0398
     23 N          24.4320   37.8433   27.8973 N.ar    1  UNL1       -0.3357
     24 C          22.6678   38.1151   26.0885 C.3     1  UNL1        0.0501
     25 C          25.5877   38.0202   27.0144 C.3     1  UNL1        0.0850
     26 C          25.5888   36.9218   25.9494 C.3     1  UNL1        0.0245
     27 C          25.5058   39.3889   26.3354 C.3     1  UNL1        0.0245
     28 C          18.4065   40.0606   33.1158 C.3     1  UNL1        0.1429
     29 C          18.7404   39.0096   34.1762 C.3     1  UNL1        0.1668
     30 O          20.1209   39.1124   34.5307 O.3     1  UNL1       -0.3490
     31 C          20.4589   40.3257   35.2059 C.3     1  UNL1        0.1742
@<TRIPOS>BOND
     1    18    19    1
     2    19    23   ar
     3    19    20   ar
     4    20    21   ar
     5    21    22   ar
     6    21    16    1
     7    22    23   ar
     8    22    24    1
     9    23    25    1
    10    25    26    1
    11    25    27    1
    12    16    17    2
    13    16    15    1
    14    15    14    1
    15    14     1    1
    16     1    13   ar
    17     1     2   ar
    18     2     3   ar
    19     3     7   ar
    20     3     4   ar
    21     4     5   ar
    22     4    11   ar
    23     5    10    1
    24     5     6   ar
    25     6     7   ar
    26     6     8    1
    27     8     9    1
    28     9    10    1
    29    11    12    2
    30    11    13   ar
    31    13    28    1
    32    28    29    1
    33    29    30    1
    34    30    31    1
@<TRIPOS>MOLECULE
ZINC17889641
 32 34 0 0 0
SMALL
GASTEIGER

@<TRIPOS>ATOM
      1 C          26.1641   36.3085   29.8647 C.ar    1  UNL1        0.1725
      2 N          25.2725   37.1287   29.3439 N.ar    1  UNL1       -0.2241
      3 C          24.2368   37.5463   30.0447 C.ar    1  UNL1        0.1112
      4 C          24.1068   37.1168   31.3239 C.ar    1  UNL1        0.0566
      5 S          25.5474   36.0698   31.4703 S.2     1  UNL1       -0.0505
      6 N          27.3061   35.7721   29.2782 N.am    1  UNL1       -0.2172
      7 C          28.4790   36.4311   29.3606 C.2     1  UNL1        0.2350
      8 O          28.5388   37.4917   29.9459 O.2     1  UNL1       -0.2741
      9 C          29.7159   35.8501   28.7254 C.3     1  UNL1        0.0956
     10 C          27.0259   30.8104   26.5390 C.3     1  UNL1        0.0310
     11 C          27.1004   32.1281   27.2665 C.ar    1  UNL1       -0.0221
     12 C          27.2804   32.1502   28.6375 C.ar    1  UNL1       -0.0030
     13 C          27.3543   33.3561   29.3063 C.ar    1  UNL1        0.0147
     14 C          27.2370   34.5474   28.6021 C.ar    1  UNL1        0.0559
     15 C          27.0568   34.5219   27.2256 C.ar    1  UNL1       -0.0081
     16 C          26.9890   33.3124   26.5617 C.ar    1  UNL1       -0.0073
     17 C          26.9347   35.8122   26.4568 C.3     1  UNL1        0.0323
     18 C          23.2241   38.4841   29.4396 C.3     1  UNL1        0.2548
     19 O          22.2873   37.7361   28.6617 O.3     1  UNL1       -0.4387
     20 C          20.9948   37.7848   29.0462 C.2     1  UNL1        0.3418
     21 O          20.1458   37.1993   28.4010 O.2     1  UNL1       -0.2449
     22 C          20.6263   38.5183   30.2019 C.2     1  UNL1        0.0820
     23 C          19.4383   38.2830   30.8011 C.2     1  UNL1        0.0097
     24 C          19.0564   39.0430   31.9988 C.ar    1  UNL1        0.0339
     25 C          20.0224   39.3908   32.9499 C.ar    1  UNL1       -0.0012
     26 C          19.6568   40.1039   34.0702 C.ar    1  UNL1       -0.0217
     27 C          18.3364   40.4793   34.2606 C.ar    1  UNL1       -0.0011
     28 C          17.3723   40.1435   33.3301 C.ar    1  UNL1        0.0366
     29 C          17.7210   39.4304   32.1938 C.ar    1  UNL1        0.1386
     30 C          20.6977   40.4784   35.0935 C.3     1  UNL1        0.0310
     31 O          16.7758   39.1045   31.2766 O.3     1  UNL1       -0.4714
     32 C          15.4104   39.2361   31.6774 C.3     1  UNL1        0.2525
@<TRIPOS>BOND
     1    10    11    1
     2    11    16   ar
     3    11    12   ar
     4    12    13   ar
     5    13    14   ar
     6    14    15   ar
     7    14     6    1
     8    15    16   ar
     9    15    17    1
    10     6     1    1
    11     6     7   am
    12     1     5   ar
    13     1     2   ar
    14     2     3   ar
    15     3     4   ar
    16     3    18    1
    17     4     5   ar
    18    18    19    1
    19    19    20    1
    20    20    21    2
    21    20    22    1
    22    22    23    2
    23    23    24    1
    24    24    29   ar
    25    24    25   ar
    26    25    26   ar
    27    26    27   ar
    28    26    30    1
    29    27    28   ar
    30    28    29   ar
    31    29    31    1
    32    31    32    1
    33     7     8    2
    34     7     9    1
@<TRIPOS>MOLECULE
ZINC14236659
 29 31 0 0 0
SMALL
GASTEIGER

@<TRIPOS>ATOM
      1 C          22.7339   39.8696   27.8550 C.ar    1  UNL1        0.0062
      2 C          23.6663   39.7145   26.8157 C.ar    1  UNL1        0.0734
      3 C          24.7707   40.4256   27.1397 C.ar    1  UNL1        0.1064
      4 N          24.5538   41.0022   28.3418 N.ar    1  UNL1       -0.2457
      5 N          23.2708   40.6402   28.7716 N.ar    1  UNL1       -0.1921
      6 CL         23.4399   38.7799   25.3704 Cl      1  UNL1       -0.0810
      7 N          21.4572   39.2970   27.9067 N.pl3   1  UNL1       -0.5185
      8 S          21.1921   37.9465   28.8278 S.O2    1  UNL1       -0.0568
      9 O          20.2896   37.1275   28.0973 O.2     1  UNL1       -0.1841
     10 O          22.4684   37.4858   29.2496 O.2     1  UNL1       -0.1841
     11 C          19.0002   39.2798   32.5573 C.ar    1  UNL1       -0.0221
     12 C          20.3765   39.3887   32.4884 C.ar    1  UNL1       -0.0030
     13 C          21.0459   38.9817   31.3494 C.ar    1  UNL1        0.0166
     14 C          20.3389   38.4654   30.2795 C.ar    1  UNL1        0.0893
     15 C          18.9621   38.3613   30.3465 C.ar    1  UNL1        0.0166
     16 C          18.2932   38.7643   31.4871 C.ar    1  UNL1       -0.0030
     17 C          18.2706   39.7226   33.7993 C.3     1  UNL1        0.0264
     18 C          17.5991   41.0731   33.5423 C.3     1  UNL1        0.0047
     19 C          15.7247   39.4919   34.0209 C.3     1  UNL1        0.0000
     20 C          16.0805   40.8898   33.5105 C.3     1  UNL1        0.0003
     21 C          25.4955   41.8571   29.0687 C.3     1  UNL1        0.1569
     22 C          25.4555   43.2499   28.4948 C.ar    1  UNL1        0.0402
     23 C          24.4097   44.1000   28.8118 C.ar    1  UNL1        0.1388
     24 C          24.3744   45.3795   28.2843 C.ar    1  UNL1        0.0294
     25 C          25.3830   45.8077   27.4416 C.ar    1  UNL1        0.0032
     26 C          26.4270   44.9593   27.1252 C.ar    1  UNL1        0.0113
     27 C          26.4666   43.6818   27.6557 C.ar    1  UNL1        0.0577
     28 CL         27.7820   42.6192   27.2632 Cl      1  UNL1       -0.0824
     29 F          23.4243   43.6813   29.6358 F       1  UNL1       -0.2044
@<TRIPOS>UNITY_ATOM_ATTR
7 1
charge -1
@<TRIPOS>BOND
     1    19    20    1
     2    20    18    1
     3    18    17    1
     4    17    11    1
     5    11    16   ar
     6    11    12   ar
     7    12    13   ar
     8    13    14   ar
     9    14    15   ar
    10    14     8    1
    11    15    16   ar
    12     8     9    2
    13     8    10    2
    14     8     7    1
    15     7     1    1
    16     1     5   ar
    17     1     2   ar
    18     2     3   ar
    19     2     6    1
    20     3     4   ar
    21     4     5   ar
    22     4    21    1
    23    21    22    1
    24    22    27   ar
    25    22    23   ar
    26    23    24   ar
    27    23    29    1
    28    24    25   ar
    29    25    26   ar
    30    26    27   ar
    31    27    28    1
@<TRIPOS>MOLECULE
ZINC13009398
 31 33 0 0 0
SMALL
GASTEIGER

@<TRIPOS>ATOM
      1 C          21.8852   38.1438   27.9263 C.2     1  UNL1        0.1058
      2 C          23.2022   38.0831   28.3270 C.ar    1  UNL1        0.0995
      3 N          24.2952   38.7092   27.7718 N.ar    1  UNL1       -0.2854
      4 C          25.5028   38.5379   28.2825 C.ar    1  UNL1        0.2675
      5 O          26.4795   39.0841   27.8043 O.2     1  UNL1       -0.2664
      6 C          25.6114   37.6537   29.4602 C.ar    1  UNL1        0.0869
      7 C          26.7096   37.3051   30.1769 C.2     1  UNL1        0.0121
      8 S          23.9070   37.1672   29.6879 S.2     1  UNL1       -0.0647
      9 C          26.6092   36.2763   31.2213 C.ar    1  UNL1        0.0112
     10 C          26.4150   36.6462   32.5571 C.ar    1  UNL1        0.0009
     11 C          26.3176   35.6749   33.5301 C.ar    1  UNL1        0.0001
     12 C          26.4213   34.3363   33.1913 C.ar    1  UNL1        0.0009
     13 C          26.6180   33.9611   31.8743 C.ar    1  UNL1        0.0114
     14 C          26.7130   34.9205   30.8864 C.ar    1  UNL1        0.0577
     15 CL         26.9599   34.4479   29.2344 Cl      1  UNL1       -0.0822
     16 C          20.9075   37.4232   28.6231 C.2     1  UNL1        0.3434
     17 O          20.3985   36.4392   28.1157 O.2     1  UNL1       -0.2448
     18 O          20.5283   37.8192   29.8580 O.3     1  UNL1       -0.4454
     19 C          18.7055   38.6515   31.2090 C.3     1  UNL1        0.0513
     20 C          19.5305   38.8393   29.9343 C.3     1  UNL1        0.2089
     21 C          24.1187   39.5743   26.6028 C.3     1  UNL1        0.1362
     22 C          24.2059   41.0175   27.0282 C.ar    1  UNL1        0.0005
     23 C          25.1892   41.8336   26.4975 C.ar    1  UNL1       -0.0022
     24 C          25.2712   43.1570   26.8782 C.ar    1  UNL1        0.0062
     25 C          24.3662   43.6694   27.8099 C.ar    1  UNL1        0.0756
     26 C          23.3799   42.8388   28.3455 C.ar    1  UNL1        0.0062
     27 C          23.3058   41.5188   27.9518 C.ar    1  UNL1       -0.0022
     28 C          24.4520   45.0839   28.2272 C.2     1  UNL1        0.3413
     29 O          24.9885   45.3759   29.2771 O.2     1  UNL1       -0.2449
     30 O          23.9353   46.0499   27.4433 O.3     1  UNL1       -0.4413
     31 C          24.5530   47.3617   27.5201 C.3     1  UNL1        0.2560
@<TRIPOS>BOND
     1    19    20    1
     2    20    18    1
     3    18    16    1
     4    16    17    2
     5    16     1    1
     6     1     2    2
     7     2     8   ar
     8     2     3   ar
     9     3     4   ar
    10     3    21    1
    11     4     5    2
    12     4     6   ar
    13     6     7    2
    14     6     8   ar
    15     7     9    1
    16     9    14   ar
    17     9    10   ar
    18    10    11   ar
    19    11    12   ar
    20    12    13   ar
    21    13    14   ar
    22    14    15    1
    23    21    22    1
    24    22    27   ar
    25    22    23   ar
    26    23    24   ar
    27    24    25   ar
    28    25    26   ar
    29    25    28    1
    30    26    27   ar
    31    28    29    2
    32    28    30    1
    33    30    31    1
@<TRIPOS>MOLECULE
ZINC10828262
 31 34 0 0 0
SMALL
GASTEIGER

@<TRIPOS>ATOM
      1 C          23.0983   38.3381   26.8407 C.2     1  UNL1        0.2757
      2 O          22.5576   37.8225   25.8855 O.2     1  UNL1       -0.2704
      3 N          23.9711   39.3486   26.6568 N.am    1  UNL1       -0.2313
      4 C          24.1615   39.8800   25.3866 C.ar    1  UNL1        0.1685
      5 N          23.4673   39.6679   24.2879 N.ar    1  UNL1       -0.2284
      6 C          23.7693   40.2567   23.1334 C.ar    1  UNL1        0.0629
      7 C          24.8464   41.0842   23.1510 C.ar    1  UNL1        0.0234
      8 S          25.3820   40.9899   24.8380 S.2     1  UNL1       -0.0559
      9 C          25.4181   41.8661   22.0175 C.3     1  UNL1        0.0343
     10 C          24.8236   41.3212   20.7090 C.3     1  UNL1        0.0057
     11 C          23.3078   41.1838   20.8772 C.3     1  UNL1        0.0067
     12 C          22.9871   40.0418   21.8429 C.3     1  UNL1        0.0461
     13 C          22.7945   37.8490   28.2334 C.3     1  UNL1        0.2933
     14 O          21.6732   38.5646   28.7556 O.3     1  UNL1       -0.4353
     15 C          20.6195   37.8321   29.1735 C.2     1  UNL1        0.3419
     16 O          20.3616   36.7732   28.6323 O.2     1  UNL1       -0.2449
     17 C          20.3529   39.0808   31.2028 C.2     1  UNL1        0.0263
     18 C          19.8146   38.2955   30.2406 C.2     1  UNL1        0.0834
     19 C          16.0172   39.5530   33.6070 C.3     1  UNL1        0.0594
     20 C          17.4923   39.7377   33.3591 C.ar    1  UNL1        0.0886
     21 N          18.2112   39.2963   32.3606 N.ar    1  UNL1       -0.2427
     22 C          19.5184   39.5611   32.3091 C.ar    1  UNL1        0.0882
     23 C          20.0544   40.3040   33.3479 C.ar    1  UNL1        0.0556
     24 S          18.6516   40.5870   34.3290 S.2     1  UNL1       -0.0702
     25 C          24.7190   39.8869   27.7957 C.3     1  UNL1        0.1267
     26 C          24.1805   41.2486   28.1518 C.ar    1  UNL1       -0.0019
     27 C          25.0515   42.2904   28.4105 C.ar    1  UNL1       -0.0026
     28 C          24.5574   43.5408   28.7320 C.ar    1  UNL1       -0.0003
     29 C          23.1924   43.7467   28.8056 C.ar    1  UNL1       -0.0000
     30 C          22.3215   42.7034   28.5524 C.ar    1  UNL1       -0.0003
     31 C          22.8155   41.4545   28.2254 C.ar    1  UNL1       -0.0026
@<TRIPOS>BOND
     1    19    20    1
     2    20    24   ar
     3    20    21   ar
     4    21    22   ar
     5    22    23   ar
     6    22    17    1
     7    23    24   ar
     8    17    18    2
     9    18    15    1
    10    15    16    2
    11    15    14    1
    12    14    13    1
    13    13     1    1
    14     1     2    2
    15     1     3   am
    16     3    25    1
    17     3     4    1
    18    25    26    1
    19    26    31   ar
    20    26    27   ar
    21    27    28   ar
    22    28    29   ar
    23    29    30   ar
    24    30    31   ar
    25     4     8   ar
    26     4     5   ar
    27     5     6   ar
    28     6    12    1
    29     6     7   ar
    30     7     8   ar
    31     7     9    1
    32     9    10    1
    33    10    11    1
    34    11    12    1
@<TRIPOS>MOLECULE
ZINC27808828
 32 35 0 0 0
SMALL
GASTEIGER

@<TRIPOS>ATOM
      1 C          21.7445   38.6653   27.3159 C.ar    1  UNL1        0.1975
      2 N          21.4570   37.6268   26.5629 N.ar    1  UNL1       -0.1218
      3 N          22.4998   37.2492   25.9137 N.ar    1  UNL1       -0.1279
      4 C          23.5207   38.0169   26.2175 C.ar    1  UNL1        0.1707
      5 N          23.0681   38.9510   27.1232 N.ar    1  UNL1       -0.2690
      6 C          23.8100   39.9800   27.7229 C.ar    1  UNL1        0.0674
      7 C          23.5830   41.3010   27.3618 C.ar    1  UNL1        0.0207
      8 C          24.3093   42.3137   27.9564 C.ar    1  UNL1        0.0384
      9 C          25.2733   42.0102   28.9067 C.ar    1  UNL1        0.1388
     10 C          25.5049   40.6898   29.2636 C.ar    1  UNL1        0.0384
     11 C          24.7751   39.6768   28.6737 C.ar    1  UNL1        0.0207
     12 O          25.9918   43.0073   29.4882 O.3     1  UNL1       -0.4714
     13 C          25.3592   44.2840   29.5974 C.3     1  UNL1        0.2525
     14 C          24.8944   37.9040   25.6837 C.ar    1  UNL1        0.0393
     15 C          25.6651   36.7743   25.9658 C.ar    1  UNL1        0.0033
     16 C          26.9452   36.6701   25.4621 C.ar    1  UNL1        0.0032
     17 C          27.4725   37.6864   24.6865 C.ar    1  UNL1        0.0369
     18 C          26.7139   38.8133   24.4007 C.ar    1  UNL1        0.1388
     19 C          25.4258   38.9258   24.8969 C.ar    1  UNL1        0.0400
     20 O          27.2355   39.8068   23.6339 O.3     1  UNL1       -0.4714
     21 C          26.4602   40.2359   22.5128 C.3     1  UNL1        0.2525
     22 S          20.6322   39.5286   28.3752 S.3     1  UNL1       -0.0667
     23 C          20.5116   38.3429   29.7376 C.3     1  UNL1        0.1336
     24 C          21.7236   38.4989   30.6581 C.3     1  UNL1        0.0221
     25 C          17.8569   39.1449   32.0175 C.ar    1  UNL1        0.1801
     26 N          19.1708   39.0845   31.7368 N.ar    1  UNL1       -0.1942
     27 C          19.2499   38.6030   30.5196 C.ar    1  UNL1        0.2464
     28 O          17.9981   38.3815   30.1074 O.2     1  UNL1       -0.3365
     29 N          17.2162   38.6981   30.9791 N.ar    1  UNL1       -0.0606
     30 C          18.1552   40.6848   33.9381 C.3     1  UNL1        0.0081
     31 C          17.2411   39.6354   33.3025 C.3     1  UNL1        0.0621
     32 C          15.8757   40.2598   33.0078 C.3     1  UNL1        0.0081
@<TRIPOS>BOND
     1    30    31    1
     2    31    32    1
     3    31    25    1
     4    25    29   ar
     5    25    26   ar
     6    26    27   ar
     7    27    28   ar
     8    27    23    1
     9    28    29   ar
    10    23    24    1
    11    23    22    1
    12    22     1    1
    13     1     5   ar
    14     1     2   ar
    15     2     3   ar
    16     3     4   ar
    17     4     5   ar
    18     4    14    1
    19     5     6    1
    20     6    11   ar
    21     6     7   ar
    22     7     8   ar
    23     8     9   ar
    24     9    10   ar
    25     9    12    1
    26    10    11   ar
    27    12    13    1
    28    14    19   ar
    29    14    15   ar
    30    15    16   ar
    31    16    17   ar
    32    17    18   ar
    33    18    19   ar
    34    18    20    1
    35    20    21    1
@<TRIPOS>MOLECULE
ZINC11369488
 32 35 0 0 0
SMALL
GASTEIGER

@<TRIPOS>ATOM
      1 C          20.1606   38.0877   29.7973 C.ar    1  UNL1        0.2597
      2 N          18.8228   38.1603   29.7971 N.ar    1  UNL1       -0.2001
      3 C          18.4088   38.7463   30.9016 C.ar    1  UNL1        0.1715
      4 N          19.5107   39.0654   31.6443 N.ar    1  UNL1       -0.2101
      5 N          20.6230   38.6286   30.9066 N.ar    1  UNL1       -0.1374
      6 C          19.5271   39.6964   32.8944 C.ar    1  UNL1        0.0847
      7 C          19.3447   41.0705   32.9822 C.ar    1  UNL1        0.0215
      8 C          19.3555   41.6900   34.2162 C.ar    1  UNL1        0.0312
      9 C          19.5596   40.9437   35.3650 C.ar    1  UNL1        0.1402
     10 C          19.7474   39.5741   35.2793 C.ar    1  UNL1        0.0312
     11 C          19.7316   38.9500   34.0476 C.ar    1  UNL1        0.0215
     12 F          19.5759   41.5525   36.5709 F       1  UNL1       -0.2042
     13 C          17.0088   39.0099   31.2707 C.ar    1  UNL1        0.0653
     14 C          16.4693   39.2335   32.5125 C.ar    1  UNL1        0.0101
     15 C          15.1166   39.4606   32.6140 C.ar    1  UNL1        0.0076
     16 C          14.3575   39.4570   31.4864 C.ar    1  UNL1        0.0355
     17 S          15.5712   39.1299   30.2187 S.2     1  UNL1       -0.0833
     18 C          20.9861   37.4952   28.7249 C.2     1  UNL1        0.3797
     19 O          20.5497   36.5777   28.0590 O.2     1  UNL1       -0.2413
     20 O          22.2231   37.9725   28.4852 O.3     1  UNL1       -0.4376
     21 C          22.3674   38.9057   27.3822 C.3     1  UNL1        0.2447
     22 C          22.5473   38.1283   26.0767 C.3     1  UNL1        0.0575
     23 C          24.5794   41.8705   28.3946 C.3     1  UNL1        0.0754
     24 C          24.1599   43.2508   27.8667 C.3     1  UNL1        0.0199
     25 C          22.8978   43.7093   28.6009 C.3     1  UNL1        0.0035
     26 C          21.7598   42.7232   28.3273 C.3     1  UNL1        0.0216
     27 C          22.1507   41.3393   28.8555 C.3     1  UNL1        0.0934
     28 N          23.4388   40.9536   28.2635 N.am    1  UNL1       -0.2783
     29 C          23.5731   39.7786   27.6171 C.2     1  UNL1        0.2659
     30 O          24.6644   39.4237   27.2246 O.2     1  UNL1       -0.2710
     31 C          26.2147   42.4174   26.5866 C.3     1  UNL1        0.0018
     32 C          25.7587   41.3425   27.5753 C.3     1  UNL1        0.0198
@<TRIPOS>BOND
     1    31    32    1
     2    32    23    1
     3    23    28    1
     4    23    24    1
     5    24    25    1
     6    25    26    1
     7    26    27    1
     8    27    28    1
     9    28    29   am
    10    29    30    2
    11    29    21    1
    12    21    22    1
    13    21    20    1
    14    20    18    1
    15    18    19    2
    16    18     1    1
    17     1     5   ar
    18     1     2   ar
    19     2     3   ar
    20     3     4   ar
    21     3    13    1
    22     4     5   ar
    23     4     6    1
    24     6    11   ar
    25     6     7   ar
    26     7     8   ar
    27     8     9   ar
    28     9    10   ar
    29     9    12    1
    30    10    11   ar
    31    13    17   ar
    32    13    14   ar
    33    14    15   ar
    34    15    16   ar
    35    16    17   ar
@<TRIPOS>MOLECULE
ZINC21478723
 31 34 0 0 0
SMALL
GASTEIGER

@<TRIPOS>ATOM
      1 C          24.4367   37.9527   29.4426 C.3     1  UNL1        0.0575
      2 C          23.4395   38.4035   28.3734 C.3     1  UNL1        0.2446
      3 C          24.1876   38.8309   27.1369 C.2     1  UNL1        0.2710
      4 O          24.4698   38.0139   26.2861 O.2     1  UNL1       -0.2706
      5 N          24.5429   40.1210   26.9766 N.am    1  UNL1       -0.2374
      6 C          24.2966   41.0875   28.0497 C.3     1  UNL1        0.0817
      7 C          23.0043   41.8533   27.7596 C.3     1  UNL1        0.0202
      8 C          22.7470   42.8626   28.8802 C.3     1  UNL1        0.0017
      9 C          23.9160   43.8464   28.9588 C.3     1  UNL1        0.0001
     10 C          25.2084   43.0807   29.2490 C.3     1  UNL1        0.0017
     11 C          25.4657   42.0714   28.1282 C.3     1  UNL1        0.0202
     12 C          25.1433   40.5346   25.7931 C.ar    1  UNL1        0.1689
     13 N          24.6069   41.1712   24.7702 N.ar    1  UNL1       -0.2222
     14 C          25.3255   41.4927   23.7125 C.ar    1  UNL1        0.1079
     15 C          26.6378   41.1536   23.6958 C.ar    1  UNL1        0.0588
     16 S          26.7939   40.3524   25.2852 S.2     1  UNL1       -0.0506
     17 O          22.5511   37.3028   28.0453 O.3     1  UNL1       -0.4425
     18 C          21.2375   37.5022   28.2359 C.2     1  UNL1        0.3234
     19 O          20.4704   36.5705   28.1783 O.2     1  UNL1       -0.2497
     20 C          20.7195   38.8883   28.5214 C.3     1  UNL1        0.1556
     21 C          19.8818   38.8633   29.7739 C.ar    1  UNL1        0.0773
     22 C          20.4814   38.8635   30.9943 C.ar    1  UNL1        0.0521
     23 S          19.0495   38.8292   32.0653 S.2     1  UNL1       -0.0663
     24 C          17.8123   38.8184   30.7744 C.ar    1  UNL1        0.1103
     25 N          18.5725   38.8410   29.6887 N.ar    1  UNL1       -0.2421
     26 C          16.3382   38.7910   30.8874 C.ar    1  UNL1        0.0238
     27 C          15.5623   38.3290   29.8236 C.ar    1  UNL1        0.0020
     28 C          14.1875   38.3020   29.9371 C.ar    1  UNL1        0.0001
     29 C          13.5776   38.7412   31.0986 C.ar    1  UNL1        0.0000
     30 C          14.3410   39.2050   32.1552 C.ar    1  UNL1        0.0001
     31 C          15.7168   39.2327   32.0563 C.ar    1  UNL1        0.0020
@<TRIPOS>BOND
     1     1     2    1
     2     2     3    1
     3     2    17    1
     4     3     4    2
     5     3     5   am
     6     5    12    1
     7     5     6    1
     8    12    16   ar
     9    12    13   ar
    10    13    14   ar
    11    14    15   ar
    12    15    16   ar
    13     6    11    1
    14     6     7    1
    15     7     8    1
    16     8     9    1
    17     9    10    1
    18    10    11    1
    19    17    18    1
    20    18    19    2
    21    18    20    1
    22    20    21    1
    23    21    25   ar
    24    21    22   ar
    25    22    23   ar
    26    23    24   ar
    27    24    25   ar
    28    24    26    1
    29    26    31   ar
    30    26    27   ar
    31    27    28   ar
    32    28    29   ar
    33    29    30   ar
    34    30    31   ar
@<TRIPOS>MOLECULE
ZINC12879191
 33 36 0 0 0
SMALL
GASTEIGER

@<TRIPOS>ATOM
      1 C          25.7877   35.6332   31.2323 C.3     1  UNL1        0.1906
      2 C          26.9450   36.6419   31.2158 C.3     1  UNL1        0.0486
      3 C          27.2226   37.0299   29.7649 C.3     1  UNL1        0.0081
      4 C          26.0070   37.6201   29.0935 C.3     1  UNL1        0.0188
      5 C          26.0633   39.1410   29.0144 C.3     1  UNL1        0.0077
      6 C          27.4159   39.6306   28.5162 C.3     1  UNL1        0.0008
      7 C          27.4243   41.1657   28.3863 C.3     1  UNL1        0.0038
      8 C          26.2984   41.5544   27.4513 C.3     1  UNL1        0.0404
      9 C          24.9563   41.1364   28.1148 C.3     1  UNL1        0.0078
     10 C          24.9253   39.6231   28.1029 C.3     1  UNL1        0.0221
     11 C          23.6093   39.0692   28.5409 C.2     1  UNL1       -0.0310
     12 C          23.4889   37.9698   29.2695 C.2     1  UNL1       -0.0303
     13 C          24.6956   37.2351   29.7145 C.2     1  UNL1       -0.0279
     14 C          24.5750   36.3207   30.6605 C.2     1  UNL1        0.0121
     15 C          22.1202   37.4648   29.6473 C.3     1  UNL1        0.0303
     16 C          23.9204   41.8395   27.2310 C.3     1  UNL1        0.0045
     17 C          24.5856   43.2292   26.9699 C.3     1  UNL1        0.0474
     18 C          26.1086   43.0429   27.1833 C.3     1  UNL1        0.1859
     19 C          26.4680   40.8114   26.1247 C.3     1  UNL1        0.0039
     20 C          25.9908   37.1078   27.6519 C.3     1  UNL1        0.0044
     21 C          26.8633   43.4508   25.9442 C.2     1  UNL1        0.1869
     22 O          26.2887   43.5268   24.8849 O.2     1  UNL1       -0.2924
     23 C          28.3351   43.7639   26.0272 C.3     1  UNL1        0.0760
     24 O          25.5190   35.2144   32.5964 O.3     1  UNL1       -0.4477
     25 C          26.5089   34.5821   33.2459 C.2     1  UNL1        0.3172
     26 O          27.1032   33.6778   32.7084 O.2     1  UNL1       -0.2501
     27 C          26.8791   35.0002   34.6457 C.3     1  UNL1        0.1096
     28 C          27.2268   33.8582   36.8405 C.3     1  UNL1        0.0006
     29 C          27.5863   33.8427   35.3535 C.3     1  UNL1        0.0116
     30 O          26.5558   43.8208   28.3249 O.3     1  UNL1       -0.4486
     31 C          25.7562   44.8188   28.7332 C.2     1  UNL1        0.3177
     32 O          25.6618   45.8260   28.0724 O.2     1  UNL1       -0.2501
     33 C          24.9763   44.6828   30.0154 C.3     1  UNL1        0.1212
@<TRIPOS>BOND
     1    28    29    1
     2    29    27    1
     3    27    25    1
     4    25    26    2
     5    25    24    1
     6    24     1    1
     7     1    14    1
     8     1     2    1
     9     2     3    1
    10     3     4    1
    11     4    13    1
    12     4     5    1
    13     4    20    1
    14     5    10    1
    15     5     6    1
    16     6     7    1
    17     7     8    1
    18     8    18    1
    19     8     9    1
    20     8    19    1
    21     9    10    1
    22     9    16    1
    23    10    11    1
    24    11    12    2
    25    12    13    1
    26    12    15    1
    27    13    14    2
    28    16    17    1
    29    17    18    1
    30    18    21    1
    31    18    30    1
    32    21    22    2
    33    21    23    1
    34    30    31    1
    35    31    32    2
    36    31    33    1
@<TRIPOS>MOLECULE
ZINC12658888
 32 35 0 0 0
SMALL
GASTEIGER

@<TRIPOS>ATOM
      1 C          22.7814   51.3063   22.9905 C.3     1  UNL1        0.0973
      2 C          23.5905   51.0238   21.7102 C.3     1  UNL1        0.0896
      3 S          22.3465   51.3774   20.4121 S.3     1  UNL1       -0.0276
      4 C          20.9654   51.8258   21.4433 C.2     1  UNL1        0.3118
      5 N          19.7735   52.1803   21.0542 N.2     1  UNL1       -0.2036
      6 N          21.4217   51.7217   22.7363 N.am    1  UNL1       -0.1981
      7 C          20.5988   52.0019   23.7663 C.2     1  UNL1        0.2573
      8 O          19.4287   52.2548   23.5576 O.2     1  UNL1       -0.2694
      9 H          19.1098   52.4834   21.7152 H       1  UNL1        0.4486
     10 C          21.1196   52.0014   25.1499 C.ar    1  UNL1        0.0570
     11 C          22.3225   52.6138   25.4674 C.ar    1  UNL1        0.0242
     12 C          22.7798   52.5886   26.7965 C.ar    1  UNL1        0.0874
     13 N          22.1018   51.9993   27.7625 N.ar    1  UNL1       -0.2448
     14 C          20.9369   51.3867   27.5446 C.ar    1  UNL1        0.0814
     15 C          20.3861   51.3540   26.2388 C.ar    1  UNL1        0.0221
     16 C          19.1641   50.7113   26.0150 C.ar    1  UNL1        0.0016
     17 C          18.5128   50.1201   27.0572 C.ar    1  UNL1        0.0001
     18 C          19.0491   50.1488   28.3425 C.ar    1  UNL1        0.0015
     19 C          20.2358   50.7659   28.5950 C.ar    1  UNL1        0.0191
     20 C          24.0607   53.2440   27.1220 C.ar    1  UNL1        0.0471
     21 C          24.2828   54.4461   27.7435 C.ar    1  UNL1        0.0085
     22 C          25.5802   54.8574   27.9430 C.ar    1  UNL1        0.0075
     23 C          26.5995   54.0637   27.5199 C.ar    1  UNL1        0.0355
     24 S          25.7252   52.6752   26.8164 S.2     1  UNL1       -0.0849
     25 C          23.3986   48.8862   23.0585 C.3     1  UNL1        0.0018
     26 C          22.7539   50.0334   23.8389 C.3     1  UNL1        0.0213
     27 C          19.4209   52.1278   19.6332 C.3     1  UNL1        0.3183
     28 C          19.0202   50.6992   19.2596 C.3     1  UNL1        0.1167
     29 C          19.6081   50.3458   17.8920 C.3     1  UNL1        0.1494
     30 O          20.6324   49.3626   18.0535 O.3     1  UNL1       -0.3535
     31 C          20.3980   48.4497   19.1277 C.3     1  UNL1        0.1422
     32 C          21.6355   47.5737   19.3319 C.3     1  UNL1        0.0346
@<TRIPOS>UNITY_ATOM_ATTR
5 1
charge 1
@<TRIPOS>BOND
     1    25    26    1
     2    26     1    1
     3     1     6    1
     4     1     2    1
     5     2     3    1
     6     3     4    1
     7     4     5    2
     8     4     6    1
     9     5    27    1
    10    27    28    1
    11    28    29    1
    12    29    30    1
    13    30    31    1
    14    31    32    1
    15     6     7   am
    16     7     8    2
    17     7    10    1
    18    10    15   ar
    19    10    11   ar
    20    11    12   ar
    21    12    13   ar
    22    12    20    1
    23    13    14   ar
    24    14    19   ar
    25    14    15   ar
    26    15    16   ar
    27    16    17   ar
    28    17    18   ar
    29    18    19   ar
    30    20    24   ar
    31    20    21   ar
    32    21    22   ar
    33    22    23   ar
    34    23    24   ar
    35     5     9    1
@<TRIPOS>MOLECULE
ZINC24912233
 30 33 0 0 0
SMALL
GASTEIGER

@<TRIPOS>ATOM
      1 C          21.0156   39.1685   28.9011 C.2     1  UNL1        0.2425
      2 O          20.5416   40.1889   28.4485 O.2     1  UNL1       -0.2735
      3 N          22.3039   38.8573   28.6561 N.am    1  UNL1       -0.2336
      4 C          23.0889   39.7056   27.8849 C.ar    1  UNL1        0.1691
      5 N          23.4264   40.9623   28.1060 N.ar    1  UNL1       -0.2237
      6 C          24.1923   41.6287   27.2552 C.ar    1  UNL1        0.0897
      7 C          24.6422   41.0031   26.1259 C.ar    1  UNL1        0.0572
      8 S          23.9163   39.3821   26.3338 S.2     1  UNL1       -0.0506
      9 C          24.5580   43.0405   27.5249 C.ar    1  UNL1        0.0182
     10 C          23.6414   43.8966   28.1331 C.ar    1  UNL1        0.0015
     11 C          23.9891   45.2079   28.3864 C.ar    1  UNL1        0.0000
     12 C          25.2404   45.6761   28.0281 C.ar    1  UNL1        0.0000
     13 C          26.1523   44.8324   27.4195 C.ar    1  UNL1        0.0000
     14 C          25.8175   43.5178   27.1660 C.ar    1  UNL1        0.0015
     15 C          20.1641   38.2485   29.7376 C.3     1  UNL1        0.1504
     16 S          20.0263   38.9132   31.4154 S.3     1  UNL1       -0.0674
     17 C          18.5945   39.8390   33.8397 C.3     1  UNL1        0.1355
     18 N          17.7192   39.4304   32.7383 N.ar    1  UNL1       -0.2736
     19 C          16.3846   39.5004   32.8950 C.ar    1  UNL1        0.2643
     20 O          15.9060   39.8997   33.9427 O.2     1  UNL1       -0.2669
     21 C          15.5346   39.1001   31.8163 C.ar    1  UNL1        0.0805
     22 C          14.0835   39.0856   31.7456 C.ar    1  UNL1        0.0138
     23 C          13.4866   38.6661   30.6203 C.ar    1  UNL1        0.0371
     24 S          14.8550   38.2528   29.5551 S.2     1  UNL1       -0.0673
     25 C          16.1900   38.6556   30.6525 C.ar    1  UNL1        0.1174
     26 N          17.5136   38.6111   30.5631 N.ar    1  UNL1       -0.2157
     27 C          18.2729   38.9860   31.5726 C.ar    1  UNL1        0.1744
     28 C          22.8764   37.6247   29.2029 C.3     1  UNL1        0.1264
     29 C          23.9793   37.9691   30.1704 C.2     1  UNL1       -0.0043
     30 C          24.2942   37.1337   31.1291 C.2     1  UNL1       -0.0031
@<TRIPOS>BOND
     1    17    18    1
     2    18    27   ar
     3    18    19   ar
     4    19    20    2
     5    19    21   ar
     6    21    25   ar
     7    21    22   ar
     8    22    23   ar
     9    23    24   ar
    10    24    25   ar
    11    25    26   ar
    12    26    27   ar
    13    27    16    1
    14    16    15    1
    15    15     1    1
    16     1     2    2
    17     1     3   am
    18     3    28    1
    19     3     4    1
    20    28    29    1
    21    29    30    2
    22     4     8   ar
    23     4     5   ar
    24     5     6   ar
    25     6     7   ar
    26     6     9    1
    27     7     8   ar
    28     9    14   ar
    29     9    10   ar
    30    10    11   ar
    31    11    12   ar
    32    12    13   ar
    33    13    14   ar
@<TRIPOS>MOLECULE
ZINC27723794
 36 40 0 0 0
SMALL
GASTEIGER

@<TRIPOS>ATOM
      1 N          23.9650   43.1565   28.3264 N.4     1  UNL1        0.2921
      2 C          22.6682   43.3104   29.0005 C.3     1  UNL1        0.1680
      3 C          21.6503   42.3601   28.3654 C.3     1  UNL1        0.1680
      4 N          22.1379   40.9783   28.4769 N.4     1  UNL1        0.2921
      5 C          23.4348   40.8246   27.8029 C.3     1  UNL1        0.1680
      6 C          24.4526   41.7748   28.4379 C.3     1  UNL1        0.1680
      7 H          23.8321   43.3646   27.3367 H       1  UNL1        0.2078
      8 H          22.2708   40.7702   29.4666 H       1  UNL1        0.2078
      9 C          24.9507   44.1072   28.8580 C.3     1  UNL1        0.1949
     10 C          24.4887   47.3375   27.3511 C.ar    1  UNL1        0.2035
     11 N          24.2348   46.4660   28.3533 N.ar    1  UNL1       -0.1858
     12 C          24.9045   45.3809   28.0540 C.ar    1  UNL1        0.2926
     13 O          25.5441   45.6178   26.9044 O.2     1  UNL1       -0.3309
     14 N          25.2968   46.7395   26.5150 N.ar    1  UNL1       -0.0558
     15 C          22.9599   51.2899   26.9951 C.ar    1  UNL1       -0.0225
     16 C          24.2238   50.9942   26.5170 C.ar    1  UNL1       -0.0042
     17 C          24.7268   49.7144   26.6345 C.ar    1  UNL1        0.0028
     18 C          23.9550   48.7169   27.2266 C.ar    1  UNL1        0.0391
     19 C          22.6805   49.0190   27.7017 C.ar    1  UNL1        0.0028
     20 C          22.1893   50.3035   27.5837 C.ar    1  UNL1       -0.0042
     21 C          22.1520   53.0032   25.3947 C.3     1  UNL1        0.0047
     22 C          22.4180   52.6904   26.8686 C.3     1  UNL1        0.0224
     23 C          23.4395   53.6846   27.4247 C.3     1  UNL1        0.0047
     24 C          21.1523   40.0277   27.9453 C.3     1  UNL1        0.1949
     25 C          20.4556   39.3349   29.0880 C.ar    1  UNL1        0.2923
     26 N          20.4252   39.7291   30.3383 N.ar    1  UNL1       -0.1896
     27 C          19.6920   38.8091   30.9902 C.ar    1  UNL1        0.1850
     28 N          19.3272   37.9149   30.1208 N.ar    1  UNL1       -0.0600
     29 O          19.7555   38.1984   29.0219 O.2     1  UNL1       -0.3312
     30 C          19.3595   38.8117   32.4601 C.3     1  UNL1        0.0955
     31 C          18.0764   39.5699   32.6835 C.ar    1  UNL1       -0.0145
     32 C          16.9332   39.2123   31.9935 C.ar    1  UNL1       -0.0038
     33 C          15.7550   39.9047   32.2020 C.ar    1  UNL1       -0.0003
     34 C          15.7227   40.9614   33.0928 C.ar    1  UNL1       -0.0000
     35 C          16.8672   41.3222   33.7789 C.ar    1  UNL1       -0.0003
     36 C          18.0441   40.6265   33.5742 C.ar    1  UNL1       -0.0038
@<TRIPOS>UNITY_ATOM_ATTR
1 1
charge 1
4 1
charge 1
@<TRIPOS>BOND
     1    21    22    1
     2    22    23    1
     3    22    15    1
     4    15    20   ar
     5    15    16   ar
     6    16    17   ar
     7    17    18   ar
     8    18    19   ar
     9    18    10    1
    10    19    20   ar
    11    10    14   ar
    12    10    11   ar
    13    11    12   ar
    14    12    13   ar
    15    12     9    1
    16    13    14   ar
    17     9     1    1
    18     1     6    1
    19     1     2    1
    20     2     3    1
    21     3     4    1
    22     4     5    1
    23     4    24    1
    24     5     6    1
    25    24    25    1
    26    25    29   ar
    27    25    26   ar
    28    26    27   ar
    29    27    28   ar
    30    27    30    1
    31    28    29   ar
    32    30    31    1
    33    31    36   ar
    34    31    32   ar
    35    32    33   ar
    36    33    34   ar
    37    34    35   ar
    38    35    36   ar
    39     1     7    1
    40     4     8    1
@<TRIPOS>MOLECULE
ZINC27532336
 28 30 0 0 0
SMALL
GASTEIGER

@<TRIPOS>ATOM
      1 N          25.0506   38.5720   28.8103 N.4     1  UNL1        0.2973
      2 C          24.1366   39.3855   27.9975 C.3     1  UNL1        0.1270
      3 C          22.8729   39.6920   28.8083 C.3     1  UNL1        0.1567
      4 N          22.3105   38.4229   29.2946 N.3     1  UNL1       -0.1429
      5 C          23.2019   37.4940   30.0059 C.3     1  UNL1        0.1567
      6 C          24.4540   37.2714   29.1427 C.3     1  UNL1        0.1270
      7 H          25.2151   39.0705   29.6848 H       1  UNL1        0.2091
      8 S          20.7145   38.0528   29.0536 S.O2    1  UNL1        0.0693
      9 O          20.6215   36.6348   29.0568 O.2     1  UNL1       -0.1523
     10 O          20.2756   38.8425   27.9568 O.2     1  UNL1       -0.1523
     11 C          19.8291   38.6188   30.4679 C.ar    1  UNL1        0.1513
     12 C          20.3078   39.1608   31.6142 C.ar    1  UNL1        0.0268
     13 C          19.4164   39.5364   32.6016 C.ar    1  UNL1        0.0041
     14 C          18.0897   39.3515   32.3942 C.ar    1  UNL1        0.0089
     15 S          18.0683   38.6264   30.7631 S.2     1  UNL1       -0.0716
     16 C          16.9328   39.6740   33.3047 C.3     1  UNL1        0.0382
     17 C          26.3442   38.4006   28.1354 C.3     1  UNL1        0.2423
     18 C          28.1864   36.4129   30.6101 C.ar    1  UNL1        0.1581
     19 N          27.5309   37.4001   30.0557 N.ar    1  UNL1       -0.1507
     20 N          27.0785   37.2977   28.7602 N.ar    1  UNL1       -0.1870
     21 C          27.3216   36.1520   28.0753 C.ar    1  UNL1        0.1507
     22 S          26.8858   35.7285   26.4747 S.2     1  UNL1       -0.0231
     23 S          28.2211   35.2058   29.2947 S.2     1  UNL1       -0.0342
     24 S          28.8608   36.3030   32.2343 S.3     1  UNL1       -0.0867
     25 C          27.3978   36.7287   33.2115 C.3     1  UNL1        0.0642
     26 C          26.6970   35.4466   33.6654 C.3     1  UNL1        0.0121
     27 C          25.2624   34.7223   31.7524 C.3     1  UNL1        0.0000
     28 C          25.2705   35.4222   33.1129 C.3     1  UNL1        0.0009
@<TRIPOS>UNITY_ATOM_ATTR
1 1
charge 1
@<TRIPOS>BOND
     1    27    28    1
     2    28    26    1
     3    26    25    1
     4    25    24    1
     5    24    18    1
     6    18    23   ar
     7    18    19   ar
     8    19    20   ar
     9    20    21   ar
    10    20    17    1
    11    21    22    2
    12    21    23   ar
    13    17     1    1
    14     1     6    1
    15     1     2    1
    16     2     3    1
    17     3     4    1
    18     4     5    1
    19     4     8    1
    20     5     6    1
    21     8     9    2
    22     8    10    2
    23     8    11    1
    24    11    15   ar
    25    11    12   ar
    26    12    13   ar
    27    13    14   ar
    28    14    15   ar
    29    14    16    1
    30     1     7    1
@<TRIPOS>MOLECULE
ZINC09198593
 34 37 0 0 0
SMALL
GASTEIGER

@<TRIPOS>ATOM
      1 C          11.4733   41.7775   21.9147 C.ar    1  UNL1        0.0505
      2 C          11.7632   41.5779   23.2268 C.ar    1  UNL1       -0.0167
      3 C          11.5369   40.2454   23.7903 C.ar    1  UNL1        0.0304
      4 C          11.8149   39.9731   25.1337 C.ar    1  UNL1        0.0071
      5 C          11.5978   38.7207   25.6365 C.ar    1  UNL1        0.0668
      6 C          11.0973   37.7116   24.8173 C.ar    1  UNL1        0.1450
      7 C          10.8159   37.9657   23.4825 C.ar    1  UNL1        0.0468
      8 C          11.0316   39.2298   22.9574 C.ar    1  UNL1        0.1472
      9 O          10.7636   39.4950   21.6609 O.2     1  UNL1       -0.4215
     10 C          10.9687   40.7142   21.1383 C.ar    1  UNL1        0.3414
     11 O          10.7173   40.9056   19.9620 O.2     1  UNL1       -0.2448
     12 C          10.2758   36.8668   22.6040 C.3     1  UNL1        0.0374
     13 O          10.8747   36.4646   25.3096 O.3     1  UNL1       -0.4293
     14 C          11.5005   36.1333   26.5514 C.3     1  UNL1        0.3294
     15 C          11.9115   38.4494   27.0867 C.3     1  UNL1        0.1399
     16 C          12.3034   42.6972   24.0792 C.3     1  UNL1        0.0310
     17 N          11.2139   37.2202   27.5096 N.4     1  UNL1        0.3140
     18 H          10.2089   37.3940   27.5284 H       1  UNL1        0.2113
     19 C          11.6900   43.1321   21.2908 C.3     1  UNL1        0.0443
     20 C          10.4064   43.5824   20.5905 C.3     1  UNL1        0.1144
     21 C           9.3896   43.9964   21.6229 C.2     1  UNL1        0.3173
     22 O           9.1054   45.1631   21.7569 O.2     1  UNL1       -0.2501
     23 O           8.7997   43.0691   22.3935 O.3     1  UNL1       -0.4485
     24 C           6.5227   43.6029   23.0721 C.3     1  UNL1        0.0513
     25 C           7.9907   43.5488   23.4997 C.3     1  UNL1        0.2086
     26 C          11.6546   36.8290   28.8681 C.3     1  UNL1        0.1145
     27 C          11.5345   38.0154   29.8267 C.3     1  UNL1        0.0874
     28 C          12.8976   38.3662   30.3652 C.ar    1  UNL1       -0.0161
     29 C          13.0127   39.0524   31.5597 C.ar    1  UNL1       -0.0018
     30 C          14.2623   39.3704   32.0570 C.ar    1  UNL1        0.0293
     31 C          15.3989   39.0106   31.3530 C.ar    1  UNL1        0.1401
     32 C          15.2823   38.3278   30.1541 C.ar    1  UNL1        0.0293
     33 C          14.0318   38.0063   29.6615 C.ar    1  UNL1       -0.0018
     34 F          16.6210   39.3250   31.8358 F       1  UNL1       -0.2042
@<TRIPOS>UNITY_ATOM_ATTR
17 1
charge 1
@<TRIPOS>BOND
     1    24    25    1
     2    25    23    1
     3    23    21    1
     4    21    22    2
     5    21    20    1
     6    20    19    1
     7    19     1    1
     8     1    10   ar
     9     1     2   ar
    10     2     3   ar
    11     2    16    1
    12     3     8   ar
    13     3     4   ar
    14     4     5   ar
    15     5    15    1
    16     5     6   ar
    17     6     7   ar
    18     6    13    1
    19     7     8   ar
    20     7    12    1
    21     8     9   ar
    22     9    10   ar
    23    10    11    2
    24    13    14    1
    25    14    17    1
    26    15    17    1
    27    26    27    1
    28    26    17    1
    29    27    28    1
    30    28    33   ar
    31    28    29   ar
    32    29    30   ar
    33    30    31   ar
    34    31    32   ar
    35    31    34    1
    36    32    33   ar
    37    17    18    1
@<TRIPOS>MOLECULE
ZINC23509298
 30 33 0 0 0
SMALL
GASTEIGER

@<TRIPOS>ATOM
      1 N          22.3336   38.1072   25.7930 N.am    1  UNL1       -0.5887
      2 C          20.1694   38.1968   29.2359 C.ar    1  UNL1        0.1580
      3 N          20.3340   37.0148   28.6713 N.ar    1  UNL1       -0.1363
      4 N          21.0551   36.9088   27.5045 N.ar    1  UNL1       -0.1652
      5 C          21.5783   37.9874   26.9557 C.ar    1  UNL1        0.0183
      6 S          21.0652   39.2528   28.1074 S.2     1  UNL1       -0.0641
      7 S          19.3047   38.6187   30.7119 S.3     1  UNL1       -0.0819
      8 C          20.6181   38.8256   31.9460 C.3     1  UNL1        0.0904
      9 C          18.6342   41.9864   36.3582 C.3     1  UNL1        0.0310
     10 C          19.1517   41.1623   35.2075 C.ar    1  UNL1       -0.0219
     11 C          20.4207   40.6170   35.2635 C.ar    1  UNL1       -0.0046
     12 C          20.8954   39.8611   34.2079 C.ar    1  UNL1       -0.0037
     13 C          20.1006   39.6497   33.0968 C.ar    1  UNL1       -0.0109
     14 C          18.8334   40.1989   33.0388 C.ar    1  UNL1       -0.0037
     15 C          18.3571   40.9512   34.0962 C.ar    1  UNL1       -0.0046
     16 C          23.4859   38.8062   25.8070 C.2     1  UNL1        0.0831
     17 O          23.7389   39.5799   24.9033 O.2     1  UNL1       -0.3129
     18 C          24.4391   38.6329   26.9171 C.ar    1  UNL1        0.0212
     19 C          25.0865   37.4085   27.1037 C.ar    1  UNL1        0.0017
     20 C          25.9761   37.2530   28.1437 C.ar    1  UNL1        0.0001
     21 C          26.2342   38.3053   29.0088 C.ar    1  UNL1        0.0005
     22 C          25.6039   39.5201   28.8388 C.ar    1  UNL1        0.0062
     23 C          24.7026   39.6971   27.7949 C.ar    1  UNL1        0.0265
     24 S          23.9010   41.2501   27.5705 S.3     1  UNL1       -0.1111
     25 C          25.1385   42.2632   26.7145 C.3     1  UNL1        0.0916
     26 C          25.6365   43.3625   27.6548 C.3     1  UNL1        0.1264
     27 C          25.0030   43.1838   29.0514 C.3     1  UNL1        0.0330
     28 C          24.7142   44.6525   29.4710 C.3     1  UNL1        0.0346
     29 C          24.3664   45.2882   28.1015 C.3     1  UNL1        0.1422
     30 O          25.2373   44.6452   27.1574 O.3     1  UNL1       -0.3553
@<TRIPOS>UNITY_ATOM_ATTR
1 1
charge -1
@<TRIPOS>BOND
     1     9    10    1
     2    10    15   ar
     3    10    11   ar
     4    11    12   ar
     5    12    13   ar
     6    13    14   ar
     7    13     8    1
     8    14    15   ar
     9     8     7    1
    10     7     2    1
    11     2     6   ar
    12     2     3   ar
    13     3     4   ar
    14     4     5   ar
    15     5     6   ar
    16     5     1    1
    17     1    16    1
    18    16    17    2
    19    16    18    1
    20    18    23   ar
    21    18    19   ar
    22    19    20   ar
    23    20    21   ar
    24    21    22   ar
    25    22    23   ar
    26    23    24    1
    27    24    25    1
    28    25    26    1
    29    26    30    1
    30    26    27    1
    31    27    28    1
    32    28    29    1
    33    29    30    1
@<TRIPOS>MOLECULE
ZINC29040290
 32 35 0 0 0
SMALL
GASTEIGER

@<TRIPOS>ATOM
      1 C          11.6762   36.7682   27.4909 C.2     1  UNL1        0.3427
      2 O          11.0947   35.7088   27.6223 O.2     1  UNL1       -0.2448
      3 C          12.1429   37.5030   28.6766 C.ar    1  UNL1        0.0887
      4 C          11.3253   38.2942   29.6039 C.ar    1  UNL1        0.0206
      5 C          12.1669   38.7819   30.5316 C.ar    1  UNL1        0.0417
      6 N          13.4350   38.3562   30.2520 N.ar    1  UNL1       -0.3133
      7 C          13.4363   37.5838   29.1465 C.ar    1  UNL1        0.0477
      8 C          14.6436   36.9260   28.5295 C.3     1  UNL1        0.0506
      9 C          11.7751   39.6580   31.6935 C.3     1  UNL1        0.0504
     10 C          14.5712   38.6722   31.0097 C.ar    1  UNL1        0.0634
     11 C          15.8133   38.7628   30.3959 C.ar    1  UNL1        0.0172
     12 C          16.9303   39.0791   31.1443 C.ar    1  UNL1       -0.0028
     13 C          16.8140   39.2955   32.5051 C.ar    1  UNL1       -0.0224
     14 C          15.5790   39.2007   33.1200 C.ar    1  UNL1       -0.0028
     15 C          14.4577   38.8895   32.3761 C.ar    1  UNL1        0.0172
     16 C          18.0356   39.6347   33.3196 C.3     1  UNL1        0.0224
     17 C          19.2886   39.4487   32.4615 C.3     1  UNL1        0.0047
     18 C          17.9490   41.0888   33.7874 C.3     1  UNL1        0.0047
     19 O          11.8932   37.2695   26.2586 O.3     1  UNL1       -0.4387
     20 C          10.7539   37.3271   25.3603 C.3     1  UNL1        0.2544
     21 C          10.7956   42.3836   21.5659 C.ar    1  UNL1        0.1110
     22 N          10.5096   42.3724   22.8323 N.ar    1  UNL1       -0.1585
     23 N          10.5316   41.1962   23.5757 N.ar    1  UNL1       -0.1705
     24 C          10.2477   41.0530   24.9036 C.ar    1  UNL1        0.2834
     25 O           9.9328   42.0265   25.5703 O.2     1  UNL1       -0.2650
     26 C          10.3226   39.7933   25.4986 C.ar    1  UNL1        0.0810
     27 C          10.6732   38.6976   24.7386 C.ar    1  UNL1        0.1097
     28 N          10.9385   38.8717   23.4464 N.ar    1  UNL1       -0.2213
     29 C          10.8707   40.0578   22.8972 C.ar    1  UNL1        0.1992
     30 S          11.1475   40.6623   21.2466 S.2     1  UNL1       -0.0321
     31 C          11.7188   43.2096   19.4178 C.3     1  UNL1        0.0073
     32 C          10.8237   43.5493   20.6111 C.3     1  UNL1        0.0545
@<TRIPOS>BOND
     1    31    32    1
     2    32    21    1
     3    21    30   ar
     4    21    22   ar
     5    22    23   ar
     6    23    29   ar
     7    23    24   ar
     8    24    25    2
     9    24    26   ar
    10    26    27   ar
    11    27    28   ar
    12    27    20    1
    13    28    29   ar
    14    29    30   ar
    15    20    19    1
    16    19     1    1
    17     1     2    2
    18     1     3    1
    19     3     7   ar
    20     3     4   ar
    21     4     5   ar
    22     5     6   ar
    23     5     9    1
    24     6     7   ar
    25     6    10    1
    26     7     8    1
    27    10    15   ar
    28    10    11   ar
    29    11    12   ar
    30    12    13   ar
    31    13    14   ar
    32    13    16    1
    33    14    15   ar
    34    16    17    1
    35    16    18    1
@<TRIPOS>MOLECULE
ZINC12563275
 34 37 0 0 0
SMALL
GASTEIGER

@<TRIPOS>ATOM
      1 C          25.2349   37.8637   28.3152 C.2     1  UNL1        0.3418
      2 O          26.1513   38.6058   28.0242 O.2     1  UNL1       -0.2449
      3 C          26.1101   36.4419   30.1794 C.ar    1  UNL1        0.0452
      4 C          25.9937   35.9356   31.4720 C.ar    1  UNL1        0.0034
      5 C          24.9201   36.2994   32.2624 C.ar    1  UNL1        0.0001
      6 C          23.9558   37.1661   31.7786 C.ar    1  UNL1        0.0002
      7 C          24.0540   37.6784   30.4984 C.ar    1  UNL1        0.0065
      8 C          25.1285   37.3234   29.6870 C.ar    1  UNL1        0.0787
      9 C          27.2564   36.0554   29.3295 C.2     1  UNL1        0.1958
     10 O          28.2556   36.7470   29.3056 O.2     1  UNL1       -0.2866
     11 C          26.9893   31.2775   26.1349 C.3     1  UNL1        0.0310
     12 C          27.0592   32.5289   26.9717 C.ar    1  UNL1       -0.0218
     13 C          26.9891   33.7696   26.3623 C.ar    1  UNL1       -0.0042
     14 C          27.0525   34.9190   27.1218 C.ar    1  UNL1        0.0029
     15 C          27.1874   34.8288   28.5094 C.ar    1  UNL1        0.0389
     16 C          27.2624   33.5731   29.1172 C.ar    1  UNL1        0.0029
     17 C          27.1929   32.4321   28.3457 C.ar    1  UNL1       -0.0042
     18 O          24.3155   37.5330   27.3879 O.3     1  UNL1       -0.4353
     19 C          23.8593   38.5917   26.5050 C.3     1  UNL1        0.2929
     20 C          23.2148   39.6829   27.3205 C.2     1  UNL1        0.2703
     21 O          23.8121   40.7178   27.5283 O.2     1  UNL1       -0.2708
     22 N          21.9748   39.5086   27.8190 N.am    1  UNL1       -0.2765
     23 C          21.2364   38.2629   27.5707 C.3     1  UNL1        0.0935
     24 C          20.7816   37.6873   28.9204 C.3     1  UNL1        0.0219
     25 C          19.9833   38.7501   29.6788 C.3     1  UNL1        0.0078
     26 C          20.8753   39.9640   29.9492 C.3     1  UNL1        0.0219
     27 C          21.3334   40.5632   28.6159 C.3     1  UNL1        0.0935
     28 C          19.4960   38.1695   31.0078 C.3     1  UNL1        0.0265
     29 C          18.1028   38.6680   31.2930 C.ar    1  UNL1       -0.0222
     30 C          17.1034   38.5023   30.3525 C.ar    1  UNL1       -0.0043
     31 C          15.8243   38.9557   30.6159 C.ar    1  UNL1       -0.0003
     32 C          15.5469   39.5834   31.8159 C.ar    1  UNL1       -0.0000
     33 C          16.5475   39.7533   32.7544 C.ar    1  UNL1       -0.0003
     34 C          17.8256   39.2962   32.4927 C.ar    1  UNL1       -0.0043
@<TRIPOS>BOND
     1    11    12    1
     2    12    17   ar
     3    12    13   ar
     4    13    14   ar
     5    14    15   ar
     6    15    16   ar
     7    15     9    1
     8    16    17   ar
     9     9    10    2
    10     9     3    1
    11     3     8   ar
    12     3     4   ar
    13     4     5   ar
    14     5     6   ar
    15     6     7   ar
    16     7     8   ar
    17     8     1    1
    18     1     2    2
    19     1    18    1
    20    18    19    1
    21    19    20    1
    22    20    21    2
    23    20    22   am
    24    22    27    1
    25    22    23    1
    26    23    24    1
    27    24    25    1
    28    25    26    1
    29    25    28    1
    30    26    27    1
    31    28    29    1
    32    29    34   ar
    33    29    30   ar
    34    30    31   ar
    35    31    32   ar
    36    32    33   ar
    37    33    34   ar
@<TRIPOS>MOLECULE
ZINC02144377
 34 37 0 0 0
SMALL
GASTEIGER

@<TRIPOS>ATOM
      1 C          24.5250   39.1117   26.7334 C.3     1  UNL1        0.1495
      2 C          24.7542   39.4430   28.2113 C.3     1  UNL1        0.0437
      3 C          23.4595   40.0124   28.7979 C.3     1  UNL1        0.0317
      4 C          22.3457   39.0164   28.6160 C.2     1  UNL1       -0.0190
      5 C          22.3383   38.1588   27.5724 C.2     1  UNL1        0.0337
      6 C          23.3679   38.1534   26.6171 C.2     1  UNL1        0.1825
      7 O          23.3254   37.3696   25.6900 O.2     1  UNL1       -0.2908
      8 C          25.1404   38.1906   28.9553 C.ar    1  UNL1       -0.0212
      9 C          25.8918   37.2115   28.3078 C.ar    1  UNL1       -0.0042
     10 C          26.2575   36.0693   28.9510 C.ar    1  UNL1       -0.0003
     11 C          25.8731   35.8707   30.2880 C.ar    1  UNL1       -0.0000
     12 C          26.2323   34.7045   30.9853 C.ar    1  UNL1       -0.0000
     13 C          25.8424   34.5467   32.2796 C.ar    1  UNL1       -0.0000
     14 C          25.0906   35.5256   32.9269 C.ar    1  UNL1       -0.0000
     15 C          24.7248   36.6677   32.2837 C.ar    1  UNL1       -0.0000
     16 C          25.1086   36.8660   30.9463 C.ar    1  UNL1       -0.0003
     17 C          24.7550   38.0351   30.2512 C.ar    1  UNL1       -0.0042
     18 C          21.2480   38.9762   29.5899 C.ar    1  UNL1       -0.0037
     19 C          21.5199   39.0821   30.9602 C.ar    1  UNL1        0.0028
     20 C          20.4866   39.0482   31.8685 C.ar    1  UNL1        0.0369
     21 C          19.1757   38.8990   31.4290 C.ar    1  UNL1        0.1387
     22 C          18.9006   38.7885   30.0702 C.ar    1  UNL1        0.0369
     23 C          19.9256   38.8261   29.1529 C.ar    1  UNL1        0.0028
     24 O          18.1611   38.8613   32.3294 O.3     1  UNL1       -0.4714
     25 C          18.3234   39.6309   33.5224 C.3     1  UNL1        0.2525
     26 C          25.7656   38.4756   26.1612 C.2     1  UNL1        0.3233
     27 O          26.8342   39.0286   26.2720 O.2     1  UNL1       -0.2496
     28 O          25.6836   37.2946   25.5285 O.3     1  UNL1       -0.4482
     29 C          26.8882   35.1922   25.2858 C.3     1  UNL1        0.0513
     30 C          26.9283   36.7060   25.0673 C.3     1  UNL1        0.2086
     31 C          24.2054   40.3954   25.9649 C.3     1  UNL1        0.0345
     32 C          24.3917   40.1523   24.4658 C.3     1  UNL1        0.1064
     33 C          24.5182   41.4440   23.7711 C.1     1  UNL1        0.0732
     34 N          24.6159   42.4406   23.2350 N.1     1  UNL1       -0.1959
@<TRIPOS>BOND
     1    29    30    1
     2    30    28    1
     3    28    26    1
     4    26    27    2
     5    26     1    1
     6     1     6    1
     7     1     2    1
     8     1    31    1
     9     2     3    1
    10     2     8    1
    11     3     4    1
    12     4     5    2
    13     4    18    1
    14     5     6    1
    15     6     7    2
    16    18    23   ar
    17    18    19   ar
    18    19    20   ar
    19    20    21   ar
    20    21    22   ar
    21    21    24    1
    22    22    23   ar
    23    24    25    1
    24     8    17   ar
    25     8     9   ar
    26     9    10   ar
    27    10    11   ar
    28    11    16   ar
    29    11    12   ar
    30    12    13   ar
    31    13    14   ar
    32    14    15   ar
    33    15    16   ar
    34    16    17   ar
    35    31    32    1
    36    32    33    1
    37    33    34    3
@<TRIPOS>MOLECULE
ZINC12212967
 34 38 0 0 0
SMALL
GASTEIGER

@<TRIPOS>ATOM
      1 C          24.9357   38.0245   28.8653 C.ar    1  UNL1        0.0293
      2 C          26.1409   37.6036   29.3412 C.ar    1  UNL1        0.0016
      3 C          26.1753   36.9521   30.5909 C.ar    1  UNL1        0.0172
      4 C          27.3802   36.4947   31.1425 C.ar    1  UNL1       -0.0031
      5 C          27.3811   35.8676   32.3551 C.ar    1  UNL1       -0.0260
      6 C          26.1912   35.6750   33.0561 C.ar    1  UNL1       -0.0246
      7 C          25.0024   36.1088   32.5448 C.ar    1  UNL1        0.0146
      8 C          24.9653   36.7584   31.3009 C.ar    1  UNL1        0.0823
      9 C          23.7731   37.8085   29.6189 C.ar    1  UNL1        0.1293
     10 C          26.4820   34.9594   34.3597 C.3     1  UNL1        0.0264
     11 C          27.9985   35.1300   34.5862 C.3     1  UNL1        0.0093
     12 C          28.5360   35.2926   33.1491 C.3     1  UNL1        0.0264
     13 N          23.7457   37.1829   30.8221 N.ar    1  UNL1       -0.2310
     14 N          22.5542   38.2478   29.1244 N.pl3   1  UNL1       -0.2883
     15 C          21.6729   38.6922   30.2141 C.3     1  UNL1        0.1242
     16 C          20.3651   39.2231   29.6212 C.3     1  UNL1        0.1636
     17 O          19.7627   38.2038   28.8190 O.3     1  UNL1       -0.3501
     18 C          20.5933   37.7482   27.7477 C.3     1  UNL1        0.1636
     19 C          21.9035   37.2022   28.3216 C.3     1  UNL1        0.1242
     20 C          24.8529   38.7264   27.5343 C.3     1  UNL1        0.1230
     21 C          26.5939   40.2663   26.8028 C.2     1  UNL1        0.2255
     22 O          27.2244   41.2947   26.9282 O.2     1  UNL1       -0.2749
     23 N          25.5498   40.0125   27.6163 N.am    1  UNL1       -0.2729
     24 C          26.9778   39.2722   25.7372 C.3     1  UNL1        0.0767
     25 C          27.3018   38.9829   23.2767 C.3     1  UNL1        0.0005
     26 C          26.6604   39.8544   24.3584 C.3     1  UNL1        0.0091
     27 C          28.4757   38.9752   25.8328 C.3     1  UNL1        0.0091
     28 C          28.7026   37.7986   26.7841 C.3     1  UNL1        0.0005
     29 C          25.1116   41.0226   28.5826 C.3     1  UNL1        0.1231
     30 C          24.0652   41.9302   27.9328 C.3     1  UNL1        0.1350
     31 C          24.4256   43.4076   28.1819 C.3     1  UNL1        0.0339
     32 C          23.1936   43.9785   28.9253 C.3     1  UNL1        0.0346
     33 C          22.0847   42.9650   28.5439 C.3     1  UNL1        0.1422
     34 O          22.7784   41.6977   28.5295 O.3     1  UNL1       -0.3545
@<TRIPOS>BOND
     1    25    26    1
     2    26    24    1
     3    24    27    1
     4    24    21    1
     5    27    28    1
     6    21    22    2
     7    21    23   am
     8    23    20    1
     9    23    29    1
    10    20     1    1
    11     1     9   ar
    12     1     2   ar
    13     2     3   ar
    14     3     8   ar
    15     3     4   ar
    16     4     5   ar
    17     5    12    1
    18     5     6   ar
    19     6     7   ar
    20     6    10    1
    21     7     8   ar
    22     8    13   ar
    23     9    14    1
    24     9    13   ar
    25    14    19    1
    26    14    15    1
    27    15    16    1
    28    16    17    1
    29    17    18    1
    30    18    19    1
    31    10    11    1
    32    11    12    1
    33    29    30    1
    34    30    34    1
    35    30    31    1
    36    31    32    1
    37    32    33    1
    38    33    34    1
@<TRIPOS>MOLECULE
ZINC08676855
 35 39 0 0 0
SMALL
GASTEIGER

@<TRIPOS>ATOM
      1 C          23.4333   38.4351   29.8314 C.3     1  UNL1        0.1392
      2 N          25.1632   41.4217   27.3953 N.pl3   1  UNL1       -0.2949
      3 C          23.8723   40.8560   26.9793 C.3     1  UNL1        0.1527
      4 C          23.1974   40.1930   28.1823 C.3     1  UNL1        0.1278
      5 C          25.3695   39.7129   29.1363 C.3     1  UNL1        0.1278
      6 C          26.0445   40.3758   27.9332 C.3     1  UNL1        0.1527
      7 N          24.0839   39.1292   28.6995 N.4     1  UNL1        0.2829
      8 H          24.2616   38.4544   27.9556 H       1  UNL1        0.2074
      9 C          26.5442   43.2366   26.5866 C.ar    1  UNL1        0.1519
     10 C          27.1503   43.9041   25.5352 C.ar    1  UNL1        0.0382
     11 C          26.9949   43.4422   24.2411 C.ar    1  UNL1        0.0032
     12 C          26.2352   42.3141   23.9923 C.ar    1  UNL1        0.0015
     13 C          25.6310   41.6396   25.0365 C.ar    1  UNL1        0.0176
     14 C          25.7781   42.1001   26.3368 C.ar    1  UNL1        0.0826
     15 C          25.9778   44.8708   28.2192 C.3     1  UNL1        0.2525
     16 O          26.6969   43.6893   27.8601 O.3     1  UNL1       -0.4702
     17 C          24.3146   37.2986   30.2813 C.ar    1  UNL1        0.0342
     18 C          24.2068   36.8084   31.5693 C.ar    1  UNL1        0.0016
     19 C          25.0122   35.7629   31.9806 C.ar    1  UNL1       -0.0001
     20 C          25.9321   35.2139   31.1069 C.ar    1  UNL1       -0.0000
     21 C          26.0433   35.7074   29.8204 C.ar    1  UNL1       -0.0001
     22 C          25.2348   36.7499   29.4077 C.ar    1  UNL1        0.0016
     23 C          22.1054   37.8898   29.3724 C.ar    1  UNL1        0.2148
     24 N          21.9116   36.9531   28.4764 N.ar    1  UNL1       -0.1065
     25 N          20.6415   36.7714   28.3589 N.ar    1  UNL1       -0.0228
     26 N          20.0202   37.5642   29.1605 N.ar    1  UNL1       -0.0430
     27 N          20.8884   38.2680   29.8054 N.ar    1  UNL1       -0.2116
     28 C          20.6029   39.2907   30.8146 C.3     1  UNL1        0.1355
     29 C          19.5064   38.7870   31.7554 C.3     1  UNL1        0.0528
     30 C          19.5213   39.5993   33.0246 C.ar    1  UNL1       -0.0202
     31 C          18.4294   40.3783   33.3593 C.ar    1  UNL1       -0.0042
     32 C          18.4432   41.1238   34.5234 C.ar    1  UNL1       -0.0003
     33 C          19.5486   41.0903   35.3526 C.ar    1  UNL1       -0.0000
     34 C          20.6402   40.3109   35.0181 C.ar    1  UNL1       -0.0003
     35 C          20.6267   39.5658   33.8538 C.ar    1  UNL1       -0.0042
@<TRIPOS>UNITY_ATOM_ATTR
7 1
charge 1
@<TRIPOS>BOND
     1    15    16    1
     2    16     9    1
     3     9    14   ar
     4     9    10   ar
     5    10    11   ar
     6    11    12   ar
     7    12    13   ar
     8    13    14   ar
     9    14     2    1
    10     2     6    1
    11     2     3    1
    12     3     4    1
    13     4     7    1
    14     5     6    1
    15     5     7    1
    16     1    17    1
    17     1    23    1
    18     1     7    1
    19    17    22   ar
    20    17    18   ar
    21    18    19   ar
    22    19    20   ar
    23    20    21   ar
    24    21    22   ar
    25    23    27   ar
    26    23    24   ar
    27    24    25   ar
    28    25    26   ar
    29    26    27   ar
    30    27    28    1
    31    28    29    1
    32    29    30    1
    33    30    35   ar
    34    30    31   ar
    35    31    32   ar
    36    32    33   ar
    37    33    34   ar
    38    34    35   ar
    39     7     8    1
@<TRIPOS>MOLECULE
ZINC24037838
 32 35 0 0 0
SMALL
GASTEIGER

@<TRIPOS>ATOM
      1 C          25.3763   38.0228   28.4187 C.ar    1  UNL1        0.1778
      2 N          25.7990   36.8233   28.1041 N.ar    1  UNL1       -0.2221
      3 C          26.3824   36.5688   26.9157 C.ar    1  UNL1        0.0880
      4 C          26.8283   35.2875   26.5779 C.ar    1  UNL1        0.0193
      5 C          27.4200   35.0752   25.3648 C.ar    1  UNL1        0.0015
      6 C          27.5854   36.1147   24.4584 C.ar    1  UNL1        0.0003
      7 C          27.1593   37.3788   24.7595 C.ar    1  UNL1        0.0063
      8 C          26.5525   37.6242   25.9906 C.ar    1  UNL1        0.0742
      9 C          26.0760   38.9614   26.3679 C.ar    1  UNL1        0.2675
     10 O          26.1946   39.9101   25.6141 O.2     1  UNL1       -0.2665
     11 N          25.5006   39.0996   27.5850 N.ar    1  UNL1       -0.2542
     12 C          25.0284   40.3551   27.9938 C.ar    1  UNL1        0.0689
     13 C          25.8733   41.2309   28.6622 C.ar    1  UNL1        0.0208
     14 C          25.4092   42.4691   29.0597 C.ar    1  UNL1        0.0386
     15 C          24.0960   42.8339   28.8008 C.ar    1  UNL1        0.1444
     16 C          23.2496   41.9568   28.1380 C.ar    1  UNL1        0.0386
     17 C          23.7141   40.7205   27.7353 C.ar    1  UNL1        0.0208
     18 O          23.6381   44.0511   29.1970 O.3     1  UNL1       -0.4236
     19 C          24.1175   45.1897   28.4789 C.3     1  UNL1        0.5087
     20 F          25.0750   45.8579   29.2497 F       1  UNL1       -0.1550
     21 F          24.6961   44.7724   27.2755 F       1  UNL1       -0.1550
     22 S          24.6191   38.2611   29.9917 S.3     1  UNL1       -0.0688
     23 C          23.1548   37.2148   29.7974 C.3     1  UNL1        0.1295
     24 C          20.8557   38.1232   29.1415 C.ar    1  UNL1        0.1099
     25 C          19.9037   39.0513   29.7700 C.ar    1  UNL1        0.0499
     26 C          20.4661   39.4278   30.9284 C.ar    1  UNL1        0.1794
     27 O          21.6586   38.8248   31.0552 O.2     1  UNL1       -0.4536
     28 C          21.9137   38.0451   30.0005 C.ar    1  UNL1        0.1405
     29 C          20.7013   37.4265   27.8537 C.2     1  UNL1        0.3441
     30 O          20.3336   36.2683   27.8296 O.2     1  UNL1       -0.2448
     31 C          22.2319   37.7717   26.0538 C.3     1  UNL1        0.2560
     32 O          20.9678   38.0729   26.7016 O.3     1  UNL1       -0.4413
@<TRIPOS>BOND
     1    31    32    1
     2    32    29    1
     3    29    30    2
     4    29    24    1
     5    24    28   ar
     6    24    25   ar
     7    25    26   ar
     8    26    27   ar
     9    27    28   ar
    10    28    23    1
    11    23    22    1
    12    22     1    1
    13     1    11   ar
    14     1     2   ar
    15     2     3   ar
    16     3     8   ar
    17     3     4   ar
    18     4     5   ar
    19     5     6   ar
    20     6     7   ar
    21     7     8   ar
    22     8     9   ar
    23     9    10    2
    24     9    11   ar
    25    11    12    1
    26    12    17   ar
    27    12    13   ar
    28    13    14   ar
    29    14    15   ar
    30    15    16   ar
    31    15    18    1
    32    16    17   ar
    33    18    19    1
    34    19    20    1
    35    19    21    1
@<TRIPOS>MOLECULE
ZINC23276562
 29 31 0 0 0
SMALL
GASTEIGER

@<TRIPOS>ATOM
      1 C          14.0274   38.3044   29.2916 C.3     1  UNL1        0.1734
      2 C          15.3404   38.4523   30.0164 C.2     1  UNL1        0.3288
      3 O          16.3775   38.4362   29.3969 O.2     1  UNL1       -0.2491
      4 O          15.3576   38.6022   31.3503 O.3     1  UNL1       -0.4436
      5 C          15.1827   40.9940   31.7733 C.3     1  UNL1        0.0560
      6 C          16.0712   39.7526   31.8751 C.3     1  UNL1        0.2297
      7 C          16.4275   39.5069   33.3188 C.2     1  UNL1        0.2128
      8 O          15.6057   39.0324   34.0738 O.2     1  UNL1       -0.2875
      9 C          17.7712   39.8426   33.8116 C.ar    1  UNL1        0.0385
     10 C          18.8342   38.9539   33.6151 C.ar    1  UNL1        0.0053
     11 C          20.0920   39.2771   34.0744 C.ar    1  UNL1        0.0297
     12 C          20.3036   40.4751   34.7411 C.ar    1  UNL1        0.1401
     13 C          19.2531   41.3579   34.9443 C.ar    1  UNL1        0.0297
     14 C          17.9917   41.0497   34.4845 C.ar    1  UNL1        0.0053
     15 F          21.5385   40.7837   35.1940 F       1  UNL1       -0.2042
     16 S          14.1427   36.9416   28.1062 S.3     1  UNL1       -0.0748
     17 C          12.7078   37.2593   27.1342 C.ar    1  UNL1        0.1588
     18 N          12.4361   38.2940   26.3800 N.ar    1  UNL1       -0.1511
     19 N          11.2495   38.3597   25.6865 N.ar    1  UNL1       -0.2160
     20 C          10.3665   37.3371   25.8099 C.ar    1  UNL1        0.1497
     21 S           8.8274   37.1361   25.0876 S.2     1  UNL1       -0.0229
     22 S          11.2446   36.2565   26.9291 S.2     1  UNL1       -0.0340
     23 C          10.9569   39.4617   24.8743 C.ar    1  UNL1        0.0841
     24 C          10.2949   40.5611   25.4058 C.ar    1  UNL1        0.0215
     25 C          10.0116   41.6491   24.6039 C.ar    1  UNL1        0.0312
     26 C          10.3782   41.6404   23.2684 C.ar    1  UNL1        0.1402
     27 C          11.0337   40.5432   22.7352 C.ar    1  UNL1        0.0312
     28 C          11.3233   39.4550   23.5345 C.ar    1  UNL1        0.0215
     29 F          10.0955   42.7038   22.4845 F       1  UNL1       -0.2042
@<TRIPOS>BOND
     1     5     6    1
     2     6     7    1
     3     6     4    1
     4     7     8    2
     5     7     9    1
     6     9    14   ar
     7     9    10   ar
     8    10    11   ar
     9    11    12   ar
    10    12    13   ar
    11    12    15    1
    12    13    14   ar
    13     4     2    1
    14     2     3    2
    15     2     1    1
    16     1    16    1
    17    16    17    1
    18    17    22   ar
    19    17    18   ar
    20    18    19   ar
    21    19    20   ar
    22    19    23    1
    23    20    21    2
    24    20    22   ar
    25    23    28   ar
    26    23    24   ar
    27    24    25   ar
    28    25    26   ar
    29    26    27   ar
    30    26    29    1
    31    27    28   ar
@<TRIPOS>MOLECULE
ZINC11215870
 31 34 0 0 0
SMALL
GASTEIGER

@<TRIPOS>ATOM
      1 C          21.6848   40.0429   28.5735 C.2     1  UNL1        0.3289
      2 O          21.7606   41.2301   28.7852 O.2     1  UNL1       -0.2491
      3 C          20.3596   39.3373   28.7045 C.3     1  UNL1        0.1728
      4 S          20.3211   38.4093   30.2580 S.3     1  UNL1       -0.0830
      5 C          20.8327   39.5788   32.8776 C.3     1  UNL1        0.0314
      6 C          19.3491   39.7573   33.0725 C.ar    1  UNL1       -0.0159
      7 C          18.8739   40.3034   34.2018 C.ar    1  UNL1        0.0052
      8 S          17.1079   40.2965   33.9566 S.2     1  UNL1       -0.0726
      9 C          17.0559   39.5605   32.3443 C.ar    1  UNL1        0.1133
     10 C          18.4171   39.3398   32.0401 C.ar    1  UNL1        0.0436
     11 C          18.6696   38.7436   30.7733 C.ar    1  UNL1        0.1101
     12 N          17.6484   38.4479   29.9840 N.ar    1  UNL1       -0.2244
     13 C          16.3970   38.6797   30.3369 C.ar    1  UNL1        0.1407
     14 N          16.1000   39.2299   31.4985 N.ar    1  UNL1       -0.2241
     15 C          15.2841   38.3120   29.3896 C.3     1  UNL1        0.0737
     16 C          19.6484   40.8031   35.3940 C.3     1  UNL1        0.0379
     17 O          22.7808   39.3526   28.2215 O.3     1  UNL1       -0.4394
     18 C          24.0649   39.9217   28.5900 C.3     1  UNL1        0.2748
     19 C          24.9937   38.8207   29.0332 C.ar    1  UNL1        0.1984
     20 C          24.9872   37.5381   28.6054 C.ar    1  UNL1        0.0618
     21 C          26.0534   36.9310   29.3264 C.ar    1  UNL1        0.1228
     22 N          26.5607   37.8708   30.0854 N.ar    1  UNL1       -0.0772
     23 O          25.9829   38.9216   29.9325 O.2     1  UNL1       -0.3540
     24 C          26.4966   35.5177   29.2408 C.ar    1  UNL1        0.0211
     25 C          26.8842   34.9804   28.0144 C.ar    1  UNL1        0.0047
     26 C          27.3005   33.6681   27.9388 C.ar    1  UNL1        0.0370
     27 C          27.3236   32.8788   29.0809 C.ar    1  UNL1        0.1387
     28 C          26.9326   33.4096   30.3030 C.ar    1  UNL1        0.0370
     29 C          26.5207   34.7228   30.3856 C.ar    1  UNL1        0.0047
     30 O          27.7288   31.5846   29.0025 O.3     1  UNL1       -0.4714
     31 C          26.7845   30.5844   29.3899 C.3     1  UNL1        0.2525
@<TRIPOS>BOND
     1     5     6    1
     2     6    10   ar
     3     6     7   ar
     4     7     8   ar
     5     7    16    1
     6     8     9   ar
     7     9    14   ar
     8     9    10   ar
     9    10    11   ar
    10    11    12   ar
    11    11     4    1
    12    12    13   ar
    13    13    14   ar
    14    13    15    1
    15     4     3    1
    16     3     1    1
    17     1     2    2
    18     1    17    1
    19    17    18    1
    20    18    19    1
    21    19    23   ar
    22    19    20   ar
    23    20    21   ar
    24    21    22   ar
    25    21    24    1
    26    22    23   ar
    27    24    29   ar
    28    24    25   ar
    29    25    26   ar
    30    26    27   ar
    31    27    28   ar
    32    27    30    1
    33    28    29   ar
    34    30    31    1
@<TRIPOS>MOLECULE
ZINC25476503
 34 38 0 0 0
SMALL
GASTEIGER

@<TRIPOS>ATOM
      1 N          22.0536   38.5227   29.2052 N.4     1  UNL1        0.2978
      2 C          21.9521   39.1076   30.5496 C.3     1  UNL1        0.1295
      3 C          20.5003   39.5099   30.8198 C.3     1  UNL1        0.1549
      4 N          19.6361   38.3278   30.6962 N.pl3   1  UNL1       -0.2654
      5 C          19.7375   37.7429   29.3519 C.3     1  UNL1        0.1549
      6 C          21.1893   37.3406   29.0817 C.3     1  UNL1        0.1295
      7 H          21.7317   39.2195   28.5335 H       1  UNL1        0.2091
      8 C          18.3235   38.6389   31.0039 C.ar    1  UNL1        0.2438
      9 N          17.2708   38.4222   30.2462 N.ar    1  UNL1       -0.0917
     10 N          16.2032   38.8304   30.8316 N.ar    1  UNL1       -0.0210
     11 N          16.4867   39.3293   31.9858 N.ar    1  UNL1       -0.0376
     12 N          17.8791   39.2193   32.1460 N.ar    1  UNL1       -0.1794
     13 C          18.6445   39.6252   33.2489 C.ar    1  UNL1        0.0873
     14 C          19.2806   38.6785   34.0403 C.ar    1  UNL1        0.0193
     15 C          20.0387   39.0817   35.1222 C.ar    1  UNL1        0.0015
     16 C          20.1544   40.4260   35.4245 C.ar    1  UNL1        0.0001
     17 C          19.5173   41.3710   34.6414 C.ar    1  UNL1        0.0015
     18 C          18.7628   40.9742   33.5546 C.ar    1  UNL1        0.0193
     19 C          23.4471   38.1924   28.8786 C.3     1  UNL1        0.2432
     20 N          25.0453   40.4010   26.5292 N.ar    1  UNL1       -0.2905
     21 C          24.6665   41.2880   27.5067 C.ar    1  UNL1        0.1416
     22 N          24.0608   40.6386   28.4481 N.ar    1  UNL1       -0.1498
     23 N          24.0369   39.2819   28.0966 N.ar    1  UNL1       -0.1776
     24 C          24.6574   39.1655   26.9039 C.ar    1  UNL1        0.1850
     25 S          24.9008   37.7166   26.0251 S.2     1  UNL1       -0.0110
     26 C          24.9104   42.7750   27.4839 C.3     1  UNL1        0.0587
     27 C          23.7432   43.4937   28.1636 C.3     1  UNL1        0.0075
     28 C          23.9908   45.0034   28.1403 C.3     1  UNL1        0.0004
     29 C          25.2884   45.3189   28.8871 C.3     1  UNL1        0.0000
     30 C          26.4556   44.6002   28.2074 C.3     1  UNL1        0.0004
     31 C          26.2079   43.0905   28.2306 C.3     1  UNL1        0.0075
     32 C          25.7530   40.7393   25.2919 C.3     1  UNL1        0.1356
     33 C          24.1921   40.4262   23.4407 C.2     1  UNL1       -0.0029
     34 C          24.7681   41.2559   24.2749 C.2     1  UNL1       -0.0017
@<TRIPOS>UNITY_ATOM_ATTR
1 1
charge 1
@<TRIPOS>BOND
     1    33    34    2
     2    34    32    1
     3    32    20    1
     4    20    24   ar
     5    20    21   ar
     6    21    22   ar
     7    21    26    1
     8    22    23   ar
     9    23    24   ar
    10    23    19    1
    11    24    25    2
    12    19     1    1
    13     1     6    1
    14     1     2    1
    15     2     3    1
    16     3     4    1
    17     4     5    1
    18     4     8    1
    19     5     6    1
    20     8    12   ar
    21     8     9   ar
    22     9    10   ar
    23    10    11   ar
    24    11    12   ar
    25    12    13    1
    26    13    18   ar
    27    13    14   ar
    28    14    15   ar
    29    15    16   ar
    30    16    17   ar
    31    17    18   ar
    32    26    31    1
    33    26    27    1
    34    27    28    1
    35    28    29    1
    36    29    30    1
    37    30    31    1
    38     1     7    1
@<TRIPOS>MOLECULE
ZINC08724507
 31 35 0 0 0
SMALL
GASTEIGER

@<TRIPOS>ATOM
      1 N          23.2768   40.1282   27.6462 N.ar    1  UNL1       -0.2575
      2 C          23.6709   41.3855   28.0160 C.ar    1  UNL1        0.2262
      3 N          22.6276   42.0092   28.5050 N.ar    1  UNL1       -0.1119
      4 N          21.5325   41.1375   28.4452 N.ar    1  UNL1       -0.1205
      5 C          21.9430   40.0044   27.9294 C.ar    1  UNL1        0.1985
      6 C          24.7163   38.2014   27.8891 C.ar    1  UNL1       -0.0059
      7 C          25.5177   37.2269   27.3263 C.ar    1  UNL1       -0.0028
      8 C          25.7097   37.1934   25.9575 C.ar    1  UNL1       -0.0002
      9 C          25.0955   38.1310   25.1474 C.ar    1  UNL1        0.0015
     10 C          24.2891   39.1043   25.7039 C.ar    1  UNL1        0.0173
     11 C          24.0949   39.1406   27.0781 C.ar    1  UNL1        0.0644
     12 C          25.8302   37.9080   30.0852 C.3     1  UNL1        0.0051
     13 C          24.5129   38.2411   29.3819 C.3     1  UNL1        0.0278
     14 N          24.9520   41.9082   27.8947 N.pl3   1  UNL1       -0.2729
     15 C          25.7762   41.5587   29.0609 C.3     1  UNL1        0.1257
     16 C          27.1932   42.1022   28.8590 C.3     1  UNL1        0.1637
     17 O          27.1304   43.5148   28.6440 O.3     1  UNL1       -0.3501
     18 C          26.3362   43.8908   27.5156 C.3     1  UNL1        0.1637
     19 C          24.9106   43.3653   27.7040 C.3     1  UNL1        0.1257
     20 S          20.9512   38.5764   27.6437 S.3     1  UNL1       -0.0652
     21 C          21.1793   37.5771   29.1405 C.3     1  UNL1        0.1528
     22 C          20.3160   38.1258   30.2471 C.ar    1  UNL1        0.2480
     23 N          20.7150   38.8695   31.2486 N.ar    1  UNL1       -0.1900
     24 C          19.6056   39.1171   31.9818 C.ar    1  UNL1        0.2038
     25 N          18.6063   38.5207   31.3831 N.ar    1  UNL1       -0.0560
     26 O          18.9986   37.9489   30.3879 O.2     1  UNL1       -0.3361
     27 C          19.5340   39.9188   33.2265 C.ar    1  UNL1        0.0461
     28 C          20.5942   39.9297   34.1309 C.ar    1  UNL1        0.0106
     29 C          20.4612   40.6827   35.2457 C.ar    1  UNL1        0.0356
     30 S          18.8371   41.3884   35.0364 S.2     1  UNL1       -0.0858
     31 C          18.4278   40.6644   33.5154 C.ar    1  UNL1        0.0386
@<TRIPOS>BOND
     1    12    13    1
     2    13     6    1
     3     6    11   ar
     4     6     7   ar
     5     7     8   ar
     6     8     9   ar
     7     9    10   ar
     8    10    11   ar
     9    11     1    1
    10     1     5   ar
    11     1     2   ar
    12     2     3   ar
    13     2    14    1
    14     3     4   ar
    15     4     5   ar
    16     5    20    1
    17    20    21    1
    18    21    22    1
    19    22    26   ar
    20    22    23   ar
    21    23    24   ar
    22    24    25   ar
    23    24    27    1
    24    25    26   ar
    25    27    31   ar
    26    27    28   ar
    27    28    29   ar
    28    29    30   ar
    29    30    31   ar
    30    14    19    1
    31    14    15    1
    32    15    16    1
    33    16    17    1
    34    17    18    1
    35    18    19    1
@<TRIPOS>MOLECULE
ZINC13499293
 37 41 0 0 0
SMALL
GASTEIGER

@<TRIPOS>ATOM
      1 N          24.5073   38.0946   28.4221 N.4     1  UNL1        0.2845
      2 H          24.2786   38.5126   29.3240 H       1  UNL1        0.2077
      3 C          25.0315   39.1457   27.5249 C.3     1  UNL1        0.1169
      4 C          25.9872   40.0446   28.2662 C.ar    1  UNL1        0.2102
      5 N          27.1510   39.7072   28.7661 N.ar    1  UNL1       -0.1069
      6 N          27.6641   40.7514   29.3195 N.ar    1  UNL1       -0.0228
      7 N          26.8544   41.7442   29.1927 N.ar    1  UNL1       -0.0431
      8 N          25.8088   41.3485   28.5488 N.ar    1  UNL1       -0.2142
      9 C          24.6460   42.1650   28.1918 C.3     1  UNL1        0.1084
     10 C          24.8142   43.5720   28.7688 C.3     1  UNL1        0.0245
     11 C          23.5997   44.4247   28.3960 C.3     1  UNL1        0.0020
     12 C          22.3330   43.7863   28.9693 C.3     1  UNL1        0.0001
     13 C          22.1648   42.3793   28.3923 C.3     1  UNL1        0.0020
     14 C          23.3792   41.5266   28.7651 C.3     1  UNL1        0.0245
     15 C          25.7608   38.4789   26.3567 C.3     1  UNL1        0.0632
     16 C          24.2232   39.8204   24.9148 C.3     1  UNL1        0.0002
     17 C          25.6730   39.3773   25.1213 C.3     1  UNL1        0.0064
     18 C          25.5300   37.0467   28.6241 C.3     1  UNL1        0.1399
     19 C          25.5992   36.7130   30.0921 C.ar    1  UNL1        0.0622
     20 C          24.6137   36.2817   30.9168 C.ar    1  UNL1        0.0084
     21 C          24.9105   36.0349   32.2440 C.ar    1  UNL1        0.0074
     22 C          26.1782   36.2315   32.6817 C.ar    1  UNL1        0.0353
     23 S          27.0021   36.7756   31.1943 S.2     1  UNL1       -0.0850
     24 C          23.2833   37.5011   27.8440 C.3     1  UNL1        0.1382
     25 C          22.1174   37.8274   28.7412 C.ar    1  UNL1        0.0885
     26 C          22.3354   38.3989   29.9515 C.ar    1  UNL1        0.0076
     27 C          21.1812   38.7034   30.7991 C.ar    1  UNL1        0.0157
     28 C          21.3431   39.2933   32.0572 C.ar    1  UNL1        0.0011
     29 C          20.2457   39.5652   32.8238 C.ar    1  UNL1       -0.0042
     30 C          18.9709   39.2613   32.3656 C.ar    1  UNL1       -0.0204
     31 C          18.7876   38.6804   31.1294 C.ar    1  UNL1        0.0128
     32 C          19.8903   38.3939   30.3311 C.ar    1  UNL1        0.0585
     33 N          19.7363   37.8135   29.0902 N.ar    1  UNL1       -0.3211
     34 C          20.8019   37.5424   28.3164 C.ar    1  UNL1        0.2591
     35 O          20.6280   37.0332   27.2228 O.2     1  UNL1       -0.2673
     36 C          17.7748   39.5704   33.2288 C.3     1  UNL1        0.0311
     37 H          18.8329   37.5943   28.7658 H       1  UNL1        0.1689
@<TRIPOS>UNITY_ATOM_ATTR
1 1
charge 1
@<TRIPOS>BOND
     1    16    17    1
     2    17    15    1
     3    15     3    1
     4     3     4    1
     5     3     1    1
     6     4     8   ar
     7     4     5   ar
     8     5     6   ar
     9     6     7   ar
    10     7     8   ar
    11     8     9    1
    12     9    14    1
    13     9    10    1
    14    10    11    1
    15    11    12    1
    16    12    13    1
    17    13    14    1
    18    18    19    1
    19    18     1    1
    20    19    23   ar
    21    19    20   ar
    22    20    21   ar
    23    21    22   ar
    24    22    23   ar
    25    24    25    1
    26    24     1    1
    27    25    34   ar
    28    25    26   ar
    29    26    27   ar
    30    27    32   ar
    31    27    28   ar
    32    28    29   ar
    33    29    30   ar
    34    30    31   ar
    35    30    36    1
    36    31    32   ar
    37    32    33   ar
    38    33    34   ar
    39    34    35    2
    40    33    37    1
    41     1     2    1
@<TRIPOS>MOLECULE
ZINC10905171
 36 39 0 0 0
SMALL
GASTEIGER

@<TRIPOS>ATOM
      1 N          24.7282   39.9242   26.6522 N.am    1  UNL1       -0.3004
      2 C          24.9074   40.7363   25.5917 C.2     1  UNL1        0.2227
      3 O          24.9005   41.9399   25.7415 O.2     1  UNL1       -0.2751
      4 H          24.7339   38.9472   26.5307 H       1  UNL1        0.1497
      5 C          24.5249   40.4952   27.9861 C.3     1  UNL1        0.1187
      6 C          22.1947   42.6333   28.1891 C.3     1  UNL1        0.0537
      7 C          22.0834   41.1689   28.5275 C.ar    1  UNL1        0.0777
      8 C          23.1127   40.2260   28.4379 C.ar    1  UNL1        0.0259
      9 C          22.6147   39.0281   28.8230 C.ar    1  UNL1        0.0551
     10 N          21.3187   39.2085   29.1531 N.ar    1  UNL1       -0.2510
     11 N          21.0076   40.5601   28.9561 N.ar    1  UNL1       -0.1739
     12 C          23.3726   37.7268   28.8771 C.3     1  UNL1        0.0515
     13 C          20.3982   38.1725   29.6282 C.3     1  UNL1        0.1534
     14 C          19.6935   38.6573   30.8690 C.ar    1  UNL1        0.0021
     15 C          20.4278   39.1253   31.9426 C.ar    1  UNL1       -0.0023
     16 C          19.7813   39.5744   33.0789 C.ar    1  UNL1       -0.0003
     17 C          18.4008   39.5457   33.1456 C.ar    1  UNL1       -0.0000
     18 C          17.6667   39.0729   32.0739 C.ar    1  UNL1       -0.0003
     19 C          18.3131   38.6287   30.9357 C.ar    1  UNL1       -0.0023
     20 C          25.1165   40.1490   24.2197 C.3     1  UNL1        0.0851
     21 C          24.2855   40.9289   23.1990 C.3     1  UNL1        0.0096
     22 C          25.0676   41.0489   21.8895 C.3     1  UNL1        0.0025
     23 C          24.9754   39.7309   21.1178 C.3     1  UNL1        0.0246
     24 C          26.0997   39.6665   20.0822 C.3     1  UNL1        0.1077
     25 N          25.5624   39.1846   18.8074 N.ar    1  UNL1       -0.3103
     26 C          24.8312   40.0205   18.0383 C.ar    1  UNL1        0.2580
     27 O          24.6149   41.1638   18.3912 O.2     1  UNL1       -0.2671
     28 C          24.3027   39.5107   16.7602 C.ar    1  UNL1        0.0340
     29 C          23.5408   40.3099   15.9115 C.ar    1  UNL1        0.0029
     30 C          23.0697   39.7856   14.7260 C.ar    1  UNL1        0.0000
     31 C          23.3504   38.4731   14.3782 C.ar    1  UNL1       -0.0018
     32 C          24.1045   37.6703   15.2106 C.ar    1  UNL1       -0.0238
     33 C          24.5868   38.1800   16.4066 C.ar    1  UNL1       -0.1133
     34 N          25.3483   37.4076   17.2711 N.ar    1  UNL1       -0.6386
     35 C          25.8108   37.9228   18.4233 C.ar    1  UNL1       -0.0162
     36 S          26.7510   36.9244   19.4480 S.2     1  UNL1       -0.0582
@<TRIPOS>UNITY_ATOM_ATTR
34 1
charge -1
@<TRIPOS>BOND
     1     6     7    1
     2     7    11   ar
     3     7     8   ar
     4     8     9   ar
     5     8     5    1
     6     9    10   ar
     7     9    12    1
     8    10    11   ar
     9    10    13    1
    10    13    14    1
    11    14    19   ar
    12    14    15   ar
    13    15    16   ar
    14    16    17   ar
    15    17    18   ar
    16    18    19   ar
    17     5     1    1
    18     1     2   am
    19     2     3    2
    20     2    20    1
    21    20    21    1
    22    21    22    1
    23    22    23    1
    24    23    24    1
    25    24    25    1
    26    25    35   ar
    27    25    26   ar
    28    26    27    2
    29    26    28   ar
    30    28    33   ar
    31    28    29   ar
    32    29    30   ar
    33    30    31   ar
    34    31    32   ar
    35    32    33   ar
    36    33    34   ar
    37    34    35   ar
    38    35    36    2
    39     1     4    1
@<TRIPOS>MOLECULE
ZINC13499595
 38 41 0 0 0
SMALL
GASTEIGER

@<TRIPOS>ATOM
      1 N          25.5810   38.5456   27.8236 N.4     1  UNL1        0.2841
      2 H          25.4210   38.6342   28.8271 H       1  UNL1        0.2077
      3 C          25.6257   39.8957   27.2235 C.3     1  UNL1        0.1168
      4 C          26.2493   40.8429   28.2159 C.ar    1  UNL1        0.2101
      5 N          27.3935   40.6853   28.8356 N.ar    1  UNL1       -0.1069
      6 N          27.5772   41.7075   29.5981 N.ar    1  UNL1       -0.0228
      7 N          26.5798   42.5131   29.4807 N.ar    1  UNL1       -0.0431
      8 N          25.7425   42.0178   28.6334 N.ar    1  UNL1       -0.2160
      9 C          24.4762   42.6195   28.2082 C.3     1  UNL1        0.0898
     10 C          24.1023   43.7518   29.1668 C.3     1  UNL1        0.0245
     11 C          24.6274   43.1790   26.7922 C.3     1  UNL1        0.0245
     12 C          23.3764   41.5558   28.2216 C.3     1  UNL1        0.0245
     13 C          26.4571   39.8823   25.9392 C.3     1  UNL1        0.0632
     14 C          24.3118   40.0839   24.6744 C.3     1  UNL1        0.0002
     15 C          25.7196   40.6581   24.8460 C.3     1  UNL1        0.0064
     16 C          24.4764   37.7645   27.2284 C.3     1  UNL1        0.1334
     17 C          23.2273   37.9945   28.0396 C.ar    1  UNL1        0.0326
     18 C          23.2827   37.9544   29.4202 C.ar    1  UNL1        0.0011
     19 C          22.1378   38.1697   30.1644 C.ar    1  UNL1       -0.0044
     20 C          20.9357   38.4156   29.5278 C.ar    1  UNL1       -0.0219
     21 C          20.8794   38.4509   28.1470 C.ar    1  UNL1       -0.0044
     22 C          22.0251   38.2399   27.4029 C.ar    1  UNL1        0.0011
     23 C          19.6866   38.6456   30.3389 C.3     1  UNL1        0.0310
     24 C          26.8670   37.8515   27.6019 C.3     1  UNL1        0.1382
     25 C          26.8800   36.5882   28.4237 C.ar    1  UNL1        0.0885
     26 C          26.9784   35.3836   27.8090 C.ar    1  UNL1        0.0073
     27 C          26.9883   34.1754   28.6359 C.ar    1  UNL1        0.0117
     28 C          27.0880   32.9048   28.0593 C.ar    1  UNL1       -0.0208
     29 C          27.0951   31.7971   28.8586 C.ar    1  UNL1       -0.0084
     30 C          27.0040   31.9210   30.2384 C.ar    1  UNL1       -0.0207
     31 C          26.9045   33.1625   30.8281 C.ar    1  UNL1        0.0128
     32 C          26.8959   34.3050   30.0344 C.ar    1  UNL1        0.0582
     33 N          26.7987   35.5595   30.5976 N.ar    1  UNL1       -0.3211
     34 C          26.7957   36.6637   29.8305 C.ar    1  UNL1        0.2591
     35 O          26.7130   37.7569   30.3630 O.2     1  UNL1       -0.2673
     36 C          27.0136   30.6848   31.1002 C.3     1  UNL1        0.0311
     37 C          27.1869   32.7586   26.5626 C.3     1  UNL1        0.0311
     38 H          26.7305   35.6482   31.5757 H       1  UNL1        0.1689
@<TRIPOS>UNITY_ATOM_ATTR
1 1
charge 1
@<TRIPOS>BOND
     1    14    15    1
     2    15    13    1
     3    13     3    1
     4     3     4    1
     5     3     1    1
     6     4     8   ar
     7     4     5   ar
     8     5     6   ar
     9     6     7   ar
    10     7     8   ar
    11     8     9    1
    12     9    10    1
    13     9    11    1
    14     9    12    1
    15    16    17    1
    16    16     1    1
    17    17    22   ar
    18    17    18   ar
    19    18    19   ar
    20    19    20   ar
    21    20    21   ar
    22    20    23    1
    23    21    22   ar
    24    24    25    1
    25    24     1    1
    26    25    34   ar
    27    25    26   ar
    28    26    27   ar
    29    27    32   ar
    30    27    28   ar
    31    28    29   ar
    32    28    37    1
    33    29    30   ar
    34    30    31   ar
    35    30    36    1
    36    31    32   ar
    37    32    33   ar
    38    33    34   ar
    39    34    35    2
    40    33    38    1
    41     1     2    1
@<TRIPOS>MOLECULE
ZINC13064967
 37 41 0 0 0
SMALL
GASTEIGER

@<TRIPOS>ATOM
      1 N          24.2012   38.9062   29.1586 N.4     1  UNL1        0.2845
      2 H          23.7862   39.4385   29.9234 H       1  UNL1        0.2077
      3 C          24.3145   39.7799   27.9719 C.3     1  UNL1        0.1169
      4 C          23.6897   41.1128   28.2948 C.ar    1  UNL1        0.2106
      5 N          22.4185   41.4217   28.2121 N.ar    1  UNL1       -0.1069
      6 N          22.2834   42.6508   28.5740 N.ar    1  UNL1       -0.0228
      7 N          23.4363   43.1363   28.8776 N.ar    1  UNL1       -0.0426
      8 N          24.3292   42.2187   28.7185 N.ar    1  UNL1       -0.2044
      9 C          25.7687   42.3550   28.9540 C.3     1  UNL1        0.1947
     10 C          26.3782   43.1989   27.8643 C.ar    1  UNL1        0.1477
     11 C          26.2744   42.9719   26.5425 C.ar    1  UNL1        0.0382
     12 C          26.9905   44.0030   25.8922 C.ar    1  UNL1        0.0435
     13 C          27.4961   44.7939   26.8558 C.ar    1  UNL1        0.1792
     14 O          27.1220   44.3020   28.0482 O.2     1  UNL1       -0.4527
     15 C          24.1402   39.7520   25.4797 C.3     1  UNL1        0.0066
     16 C          23.5924   39.1541   26.7771 C.3     1  UNL1        0.0632
     17 C          25.5412   38.4382   29.5713 C.3     1  UNL1        0.1399
     18 C          25.3820   37.2839   30.5269 C.ar    1  UNL1        0.0622
     19 C          24.7600   37.2519   31.7308 C.ar    1  UNL1        0.0084
     20 C          24.7370   36.0671   32.4423 C.ar    1  UNL1        0.0074
     21 C          25.3373   34.9720   31.9150 C.ar    1  UNL1        0.0353
     22 S          25.9568   35.6016   30.3636 S.2     1  UNL1       -0.0850
     23 C          23.3340   37.7490   28.8530 C.3     1  UNL1        0.1382
     24 C          21.9627   38.0074   29.4221 C.ar    1  UNL1        0.0885
     25 C          21.8352   38.5251   30.6689 C.ar    1  UNL1        0.0073
     26 C          20.4891   38.7637   31.1928 C.ar    1  UNL1        0.0117
     27 C          20.2944   39.2955   32.4719 C.ar    1  UNL1       -0.0208
     28 C          19.0256   39.5059   32.9318 C.ar    1  UNL1       -0.0084
     29 C          17.9272   39.1968   32.1409 C.ar    1  UNL1       -0.0207
     30 C          18.0952   38.6725   30.8776 C.ar    1  UNL1        0.0128
     31 C          19.3780   38.4495   30.3878 C.ar    1  UNL1        0.0582
     32 N          19.5755   37.9257   29.1280 N.ar    1  UNL1       -0.3211
     33 C          20.8157   37.7096   28.6556 C.ar    1  UNL1        0.2591
     34 O          20.9528   37.2451   27.5371 O.2     1  UNL1       -0.2673
     35 C          16.5365   39.4375   32.6694 C.3     1  UNL1        0.0311
     36 C          21.4795   39.6351   33.3387 C.3     1  UNL1        0.0311
     37 H          18.7974   37.7068   28.5661 H       1  UNL1        0.1689
@<TRIPOS>UNITY_ATOM_ATTR
1 1
charge 1
@<TRIPOS>BOND
     1    15    16    1
     2    16     3    1
     3     3     4    1
     4     3     1    1
     5     4     8   ar
     6     4     5   ar
     7     5     6   ar
     8     6     7   ar
     9     7     8   ar
    10     8     9    1
    11     9    10    1
    12    10    14   ar
    13    10    11   ar
    14    11    12   ar
    15    12    13   ar
    16    13    14   ar
    17    17    18    1
    18    17     1    1
    19    18    22   ar
    20    18    19   ar
    21    19    20   ar
    22    20    21   ar
    23    21    22   ar
    24    23    24    1
    25    23     1    1
    26    24    33   ar
    27    24    25   ar
    28    25    26   ar
    29    26    31   ar
    30    26    27   ar
    31    27    28   ar
    32    27    36    1
    33    28    29   ar
    34    29    30   ar
    35    29    35    1
    36    30    31   ar
    37    31    32   ar
    38    32    33   ar
    39    33    34    2
    40    32    37    1
    41     1     2    1
@<TRIPOS>MOLECULE
ZINC13498965
 38 42 0 0 0
SMALL
GASTEIGER

@<TRIPOS>ATOM
      1 N          24.2122   38.8383   28.0974 N.4     1  UNL1        0.2845
      2 H          24.1957   39.3052   29.0041 H       1  UNL1        0.2077
      3 C          23.3857   37.6152   28.1721 C.3     1  UNL1        0.1382
      4 C          19.9927   40.0929   34.3339 C.3     1  UNL1        0.0307
      5 C          19.9340   39.5147   32.9434 C.ar    1  UNL1       -0.0257
      6 C          21.0933   39.2608   32.2662 C.ar    1  UNL1       -0.0031
      7 C          21.0391   38.7239   30.9760 C.ar    1  UNL1        0.0154
      8 C          22.2615   38.4392   30.2222 C.ar    1  UNL1        0.0076
      9 C          22.1472   37.9193   28.9751 C.ar    1  UNL1        0.0885
     10 C          20.8725   37.6672   28.4241 C.ar    1  UNL1        0.2591
     11 O          20.7924   37.2039   27.2996 O.2     1  UNL1       -0.2673
     12 N          19.7444   37.9206   29.1105 N.ar    1  UNL1       -0.3211
     13 C          19.7922   38.4491   30.3830 C.ar    1  UNL1        0.0585
     14 C          18.6256   38.7162   31.0913 C.ar    1  UNL1        0.0125
     15 C          18.7030   39.2451   32.3620 C.ar    1  UNL1       -0.0244
     16 C          17.4375   39.5332   33.1280 C.3     1  UNL1        0.0307
     17 H          18.8717   37.7259   28.6984 H       1  UNL1        0.1689
     18 C          23.6657   39.7556   27.0752 C.3     1  UNL1        0.1399
     19 C          23.3281   41.0680   27.7344 C.ar    1  UNL1        0.0622
     20 C          22.1816   41.4425   28.3529 C.ar    1  UNL1        0.0084
     21 C          22.0951   42.7119   28.8930 C.ar    1  UNL1        0.0074
     22 C          23.1594   43.5448   28.7882 C.ar    1  UNL1        0.0353
     23 S          24.3372   42.5301   27.9102 S.2     1  UNL1       -0.0850
     24 C          25.6082   38.4850   27.7645 C.3     1  UNL1        0.1166
     25 C          26.2846   37.9607   29.0050 C.ar    1  UNL1        0.2106
     26 N          26.0280   38.3083   30.2425 N.ar    1  UNL1       -0.1069
     27 N          26.8137   37.6399   31.0145 N.ar    1  UNL1       -0.0228
     28 N          27.5647   36.8751   30.3016 N.ar    1  UNL1       -0.0426
     29 N          27.2688   37.0441   29.0572 N.ar    1  UNL1       -0.2044
     30 C          27.8872   36.3654   27.9157 C.3     1  UNL1        0.1947
     31 C          27.9792   34.8881   28.1993 C.ar    1  UNL1        0.1477
     32 C          27.0037   33.9852   27.9928 C.ar    1  UNL1        0.0382
     33 C          27.5169   32.7294   28.3912 C.ar    1  UNL1        0.0435
     34 C          28.7723   32.9414   28.8250 C.ar    1  UNL1        0.1792
     35 O          29.0470   34.2506   28.7065 O.2     1  UNL1       -0.4527
     36 C          26.3641   39.7124   27.2516 C.3     1  UNL1        0.0573
     37 C          27.3075   40.2231   28.3425 C.3     1  UNL1        0.0064
     38 C          27.1764   39.3302   26.0127 C.3     1  UNL1        0.0064
@<TRIPOS>UNITY_ATOM_ATTR
1 1
charge 1
@<TRIPOS>BOND
     1     4     5    1
     2     5    15   ar
     3     5     6   ar
     4     6     7   ar
     5     7    13   ar
     6     7     8   ar
     7     8     9   ar
     8     9    10   ar
     9     9     3    1
    10    10    11    2
    11    10    12   ar
    12    12    13   ar
    13    13    14   ar
    14    14    15   ar
    15    15    16    1
    16     3     1    1
    17    18    19    1
    18    18     1    1
    19    19    23   ar
    20    19    20   ar
    21    20    21   ar
    22    21    22   ar
    23    22    23   ar
    24    24    25    1
    25    24    36    1
    26    24     1    1
    27    25    29   ar
    28    25    26   ar
    29    26    27   ar
    30    27    28   ar
    31    28    29   ar
    32    29    30    1
    33    30    31    1
    34    31    35   ar
    35    31    32   ar
    36    32    33   ar
    37    33    34   ar
    38    34    35   ar
    39    36    37    1
    40    36    38    1
    41    12    17    1
    42     1     2    1
@<TRIPOS>MOLECULE
ZINC13943085
 35 37 0 0 0
SMALL
GASTEIGER

@<TRIPOS>ATOM
      1 C          26.5323   38.1013   28.1233 C.ar    1  UNL1        0.2046
      2 N          27.0188   39.3183   28.1406 N.ar    1  UNL1       -0.1071
      3 N          26.8122   39.8128   29.3122 N.ar    1  UNL1       -0.0228
      4 N          26.2135   38.9401   30.0452 N.ar    1  UNL1       -0.0428
      5 N          26.0234   37.8713   29.3479 N.ar    1  UNL1       -0.2102
      6 C          26.5460   37.1433   26.9600 C.3     1  UNL1        0.0676
      7 C          27.5655   37.6162   25.9219 C.3     1  UNL1        0.0571
      8 C          27.5795   36.6435   24.7410 C.3     1  UNL1        0.0061
      9 C          27.9643   35.2474   25.2346 C.3     1  UNL1        0.0004
     10 C          26.9449   34.7746   26.2728 C.3     1  UNL1        0.0061
     11 C          26.9309   35.7473   27.4537 C.3     1  UNL1        0.0571
     12 N          25.2087   37.0992   26.3391 N.4     1  UNL1        0.2601
     13 H          25.1970   36.3798   25.6161 H       1  UNL1        0.2041
     14 H          24.5166   36.8845   27.0569 H       1  UNL1        0.2041
     15 C          24.8823   38.4037   25.7328 C.3     1  UNL1        0.2130
     16 C          23.4252   38.7072   25.9688 C.2     1  UNL1        0.3737
     17 O          22.5783   38.1560   25.3063 O.2     1  UNL1       -0.2435
     18 O          23.0681   39.5897   26.9152 O.3     1  UNL1       -0.4445
     19 C          23.3817   41.6170   28.2271 C.3     1  UNL1        0.0513
     20 C          23.8991   40.7712   27.0620 C.3     1  UNL1        0.2088
     21 C          25.3750   36.6391   29.8034 C.3     1  UNL1        0.1302
     22 C          26.2045   36.0108   30.9251 C.3     1  UNL1        0.0248
     23 C          25.5999   36.3880   32.2791 C.3     1  UNL1        0.0023
     24 C          26.2006   34.4887   30.7710 C.3     1  UNL1        0.0023
     25 C          27.6424   36.5277   30.8468 C.3     1  UNL1        0.0023
     26 C          23.9949   36.9581   30.3176 C.2     1  UNL1       -0.0022
     27 C          23.2089   37.7828   29.6393 C.2     1  UNL1       -0.0018
     28 C          21.9031   38.1877   30.2002 C.ar    1  UNL1        0.0104
     29 C          21.8420   38.8425   31.4310 C.ar    1  UNL1        0.0017
     30 C          20.6208   39.2232   31.9470 C.ar    1  UNL1        0.0114
     31 C          19.4552   38.9471   31.2520 C.ar    1  UNL1        0.0585
     32 C          19.5079   38.2929   30.0333 C.ar    1  UNL1        0.0228
     33 C          20.7248   37.9117   29.5034 C.ar    1  UNL1        0.0585
     34 CL         20.7898   37.0907   27.9752 Cl      1  UNL1       -0.0822
     35 CL         17.9218   39.4238   31.9116 Cl      1  UNL1       -0.0822
@<TRIPOS>UNITY_ATOM_ATTR
12 1
charge 1
@<TRIPOS>BOND
     1    19    20    1
     2    20    18    1
     3    18    16    1
     4    16    17    2
     5    16    15    1
     6    15    12    1
     7     6    11    1
     8     6     7    1
     9     6     1    1
    10     6    12    1
    11     7     8    1
    12     8     9    1
    13     9    10    1
    14    10    11    1
    15     1     5   ar
    16     1     2   ar
    17     2     3   ar
    18     3     4   ar
    19     4     5   ar
    20     5    21    1
    21    21    26    1
    22    21    22    1
    23    26    27    2
    24    27    28    1
    25    28    33   ar
    26    28    29   ar
    27    29    30   ar
    28    30    31   ar
    29    31    32   ar
    30    31    35    1
    31    32    33   ar
    32    33    34    1
    33    22    23    1
    34    22    24    1
    35    22    25    1
    36    12    13    1
    37    12    14    1
@<TRIPOS>MOLECULE
ZINC13500354
 38 41 0 0 0
SMALL
GASTEIGER

@<TRIPOS>ATOM
      1 N          24.1813   38.8497   28.0344 N.4     1  UNL1        0.2841
      2 H          24.0950   39.3664   28.9096 H       1  UNL1        0.2077
      3 C          25.6032   38.5099   27.8157 C.3     1  UNL1        0.1166
      4 N          26.4716   36.1310   28.1180 N.ar    1  UNL1       -0.2160
      5 C          25.9244   37.2629   28.5985 C.ar    1  UNL1        0.2101
      6 N          25.7199   37.0680   29.8784 N.ar    1  UNL1       -0.1069
      7 N          26.1254   35.8803   30.1698 N.ar    1  UNL1       -0.0228
      8 N          26.5831   35.3125   29.1090 N.ar    1  UNL1       -0.0431
      9 C          26.8693   35.8774   26.7309 C.3     1  UNL1        0.0897
     10 C          25.8413   36.4997   25.7838 C.3     1  UNL1        0.0245
     11 C          28.2431   36.4993   26.4724 C.3     1  UNL1        0.0245
     12 C          26.9620   34.0946   24.9830 C.3     1  UNL1        0.0020
     13 C          26.9387   34.3684   26.4881 C.3     1  UNL1        0.0226
     14 C          26.5033   39.6539   28.2867 C.3     1  UNL1        0.0573
     15 C          26.0575   40.1148   29.6758 C.3     1  UNL1        0.0064
     16 C          27.9530   39.1687   28.3513 C.3     1  UNL1        0.0064
     17 C          23.6880   39.6953   26.9269 C.3     1  UNL1        0.1334
     18 C          23.5307   41.1073   27.4292 C.ar    1  UNL1        0.0328
     19 C          22.4959   41.4231   28.2898 C.ar    1  UNL1        0.0037
     20 C          22.3536   42.7167   28.7548 C.ar    1  UNL1        0.0295
     21 C          23.2416   43.6990   28.3501 C.ar    1  UNL1        0.1401
     22 C          24.2745   43.3826   27.4840 C.ar    1  UNL1        0.0295
     23 C          24.4180   42.0872   27.0244 C.ar    1  UNL1        0.0037
     24 F          23.1006   44.9648   28.8003 F       1  UNL1       -0.2042
     25 C          23.3749   37.6143   28.1246 C.3     1  UNL1        0.1382
     26 C          22.1374   37.8999   28.9359 C.ar    1  UNL1        0.0885
     27 C          22.2513   38.4398   30.1745 C.ar    1  UNL1        0.0076
     28 C          21.0295   38.7113   30.9341 C.ar    1  UNL1        0.0154
     29 C          21.0831   39.2735   32.2139 C.ar    1  UNL1       -0.0028
     30 C          19.9250   39.5093   32.8989 C.ar    1  UNL1       -0.0218
     31 C          18.6950   39.1954   32.3365 C.ar    1  UNL1       -0.0028
     32 C          18.6183   38.6414   31.0770 C.ar    1  UNL1        0.0167
     33 C          19.7844   38.3923   30.3603 C.ar    1  UNL1        0.0588
     34 N          19.7371   37.8388   29.0987 N.ar    1  UNL1       -0.3211
     35 C          20.8643   37.5986   28.4062 C.ar    1  UNL1        0.2591
     36 O          20.7849   37.1079   27.2933 O.2     1  UNL1       -0.2673
     37 C          19.9830   40.1150   34.2776 C.3     1  UNL1        0.0310
     38 H          18.8654   37.6162   28.6989 H       1  UNL1        0.1689
@<TRIPOS>UNITY_ATOM_ATTR
1 1
charge 1
@<TRIPOS>BOND
     1    12    13    1
     2    13     9    1
     3     9    10    1
     4     9    11    1
     5     9     4    1
     6     4     8   ar
     7     4     5   ar
     8     5     6   ar
     9     5     3    1
    10     6     7   ar
    11     7     8   ar
    12     3    14    1
    13     3     1    1
    14    14    15    1
    15    14    16    1
    16    17    18    1
    17    17     1    1
    18    18    23   ar
    19    18    19   ar
    20    19    20   ar
    21    20    21   ar
    22    21    22   ar
    23    21    24    1
    24    22    23   ar
    25    25    26    1
    26    25     1    1
    27    26    35   ar
    28    26    27   ar
    29    27    28   ar
    30    28    33   ar
    31    28    29   ar
    32    29    30   ar
    33    30    31   ar
    34    30    37    1
    35    31    32   ar
    36    32    33   ar
    37    33    34   ar
    38    34    35   ar
    39    35    36    2
    40    34    38    1
    41     1     2    1
@<TRIPOS>MOLECULE
ZINC13499631
 39 43 0 0 0
SMALL
GASTEIGER

@<TRIPOS>ATOM
      1 N          24.5229   38.1981   28.8886 N.4     1  UNL1        0.2841
      2 H          24.2759   38.5599   29.8098 H       1  UNL1        0.2077
      3 C          24.8595   39.3319   28.0020 C.3     1  UNL1        0.1168
      4 C          26.1034   40.0307   28.4870 C.ar    1  UNL1        0.2102
      5 N          27.3035   39.5129   28.5867 N.ar    1  UNL1       -0.1069
      6 N          28.0939   40.4244   29.0388 N.ar    1  UNL1       -0.0228
      7 N          27.4291   41.5102   29.2302 N.ar    1  UNL1       -0.0431
      8 N          26.1991   41.3092   28.8964 N.ar    1  UNL1       -0.2142
      9 C          25.1105   42.2878   28.9555 C.3     1  UNL1        0.1084
     10 C          24.6285   42.6008   27.5376 C.3     1  UNL1        0.0245
     11 C          23.4916   43.6227   27.5993 C.3     1  UNL1        0.0020
     12 C          23.9953   44.9067   28.2616 C.3     1  UNL1        0.0001
     13 C          24.4773   44.5937   29.6796 C.3     1  UNL1        0.0020
     14 C          25.6143   43.5717   29.6179 C.3     1  UNL1        0.0245
     15 C          25.0926   38.7995   26.5867 C.3     1  UNL1        0.0632
     16 C          23.1810   38.8235   24.9780 C.3     1  UNL1        0.0002
     17 C          24.3131   39.6543   25.5854 C.3     1  UNL1        0.0064
     18 C          25.6880   37.2985   29.0225 C.3     1  UNL1        0.1334
     19 C          25.5549   36.5246   30.3087 C.ar    1  UNL1        0.0327
     20 C          25.9307   35.1952   30.3575 C.ar    1  UNL1        0.0014
     21 C          25.8087   34.4853   31.5374 C.ar    1  UNL1       -0.0001
     22 C          25.3110   35.1048   32.6684 C.ar    1  UNL1       -0.0000
     23 C          24.9355   36.4343   32.6198 C.ar    1  UNL1       -0.0001
     24 C          25.0575   37.1442   31.4399 C.ar    1  UNL1        0.0014
     25 C          23.3700   37.4532   28.3403 C.3     1  UNL1        0.1382
     26 C          22.1363   37.8331   29.1178 C.ar    1  UNL1        0.0885
     27 C          22.2577   38.3831   30.3513 C.ar    1  UNL1        0.0076
     28 C          21.0398   38.7447   31.0789 C.ar    1  UNL1        0.0154
     29 C          21.1015   39.3207   32.3521 C.ar    1  UNL1        0.0011
     30 C          19.9465   39.6421   33.0067 C.ar    1  UNL1       -0.0045
     31 C          18.7115   39.4029   32.4193 C.ar    1  UNL1       -0.0244
     32 C          18.6267   38.8371   31.1656 C.ar    1  UNL1       -0.0101
     33 C          19.7895   38.5010   30.4799 C.ar    1  UNL1        0.0545
     34 N          19.7342   37.9343   29.2244 N.ar    1  UNL1       -0.3214
     35 C          20.8583   37.6096   28.5620 C.ar    1  UNL1        0.2591
     36 O          20.7716   37.1102   27.4536 O.2     1  UNL1       -0.2673
     37 C          17.2795   38.5839   30.5395 C.3     1  UNL1        0.0322
     38 C          17.4505   39.7662   33.1602 C.3     1  UNL1        0.0307
     39 H          18.8589   37.7649   28.8069 H       1  UNL1        0.1689
@<TRIPOS>UNITY_ATOM_ATTR
1 1
charge 1
@<TRIPOS>BOND
     1    16    17    1
     2    17    15    1
     3    15     3    1
     4     3     4    1
     5     3     1    1
     6     4     8   ar
     7     4     5   ar
     8     5     6   ar
     9     6     7   ar
    10     7     8   ar
    11     8     9    1
    12     9    14    1
    13     9    10    1
    14    10    11    1
    15    11    12    1
    16    12    13    1
    17    13    14    1
    18    18    19    1
    19    18     1    1
    20    19    24   ar
    21    19    20   ar
    22    20    21   ar
    23    21    22   ar
    24    22    23   ar
    25    23    24   ar
    26    25    26    1
    27    25     1    1
    28    26    35   ar
    29    26    27   ar
    30    27    28   ar
    31    28    33   ar
    32    28    29   ar
    33    29    30   ar
    34    30    31   ar
    35    31    32   ar
    36    31    38    1
    37    32    33   ar
    38    32    37    1
    39    33    34   ar
    40    34    35   ar
    41    35    36    2
    42    34    39    1
    43     1     2    1
@<TRIPOS>MOLECULE
ZINC13500828
 38 41 0 0 0
SMALL
GASTEIGER

@<TRIPOS>ATOM
      1 N          24.4687   38.1304   28.6385 N.4     1  UNL1        0.2841
      2 H          24.2307   38.4988   29.5594 H       1  UNL1        0.2077
      3 C          24.9578   39.2377   27.7902 C.3     1  UNL1        0.1168
      4 C          25.5814   40.2840   28.6776 C.ar    1  UNL1        0.2101
      5 N          26.5710   40.1078   29.5188 N.ar    1  UNL1       -0.1069
      6 N          26.8153   41.2376   30.0881 N.ar    1  UNL1       -0.0228
      7 N          26.0071   42.1298   29.6319 N.ar    1  UNL1       -0.0431
      8 N          25.2341   41.5819   28.7561 N.ar    1  UNL1       -0.2160
      9 C          24.1750   42.2470   27.9930 C.3     1  UNL1        0.0897
     10 C          24.6388   42.4530   26.5496 C.3     1  UNL1        0.0245
     11 C          22.9155   41.3784   28.0050 C.3     1  UNL1        0.0245
     12 C          23.8645   43.6042   28.6275 C.3     1  UNL1        0.0226
     13 C          22.3625   43.7087   28.8990 C.3     1  UNL1        0.0020
     14 C          26.0004   38.7268   26.7938 C.3     1  UNL1        0.0632
     15 C          24.1122   39.1314   25.2085 C.3     1  UNL1        0.0002
     16 C          25.6307   39.1937   25.3845 C.3     1  UNL1        0.0064
     17 C          25.5232   37.1058   28.7892 C.3     1  UNL1        0.1334
     18 C          25.4382   36.5248   30.1772 C.ar    1  UNL1        0.0328
     19 C          24.9464   37.2908   31.2176 C.ar    1  UNL1        0.0037
     20 C          24.8635   36.7575   32.4898 C.ar    1  UNL1        0.0295
     21 C          25.2831   35.4591   32.7243 C.ar    1  UNL1        0.1401
     22 C          25.7804   34.6945   31.6825 C.ar    1  UNL1        0.0295
     23 C          25.8574   35.2282   30.4101 C.ar    1  UNL1        0.0037
     24 F          25.2069   34.9382   33.9685 F       1  UNL1       -0.2042
     25 C          23.2612   37.5277   28.0356 C.3     1  UNL1        0.1382
     26 C          22.0687   37.8788   28.8877 C.ar    1  UNL1        0.0885
     27 C          22.2532   38.3962   30.1274 C.ar    1  UNL1        0.0076
     28 C          21.0739   38.7309   30.9280 C.ar    1  UNL1        0.0154
     29 C          21.2007   39.2721   32.2117 C.ar    1  UNL1        0.0014
     30 C          20.0806   39.5694   32.9349 C.ar    1  UNL1       -0.0002
     31 C          18.8172   39.3384   32.4076 C.ar    1  UNL1       -0.0028
     32 C          18.6685   38.8057   31.1454 C.ar    1  UNL1       -0.0062
     33 C          19.7948   38.4953   30.3901 C.ar    1  UNL1        0.0548
     34 N          19.6753   37.9618   29.1244 N.ar    1  UNL1       -0.3214
     35 C          20.7641   37.6625   28.3946 C.ar    1  UNL1        0.2591
     36 O          20.6208   37.1921   27.2793 O.2     1  UNL1       -0.2673
     37 C          17.2911   38.5597   30.5857 C.3     1  UNL1        0.0325
     38 H          18.7798   37.7975   28.7496 H       1  UNL1        0.1689
@<TRIPOS>UNITY_ATOM_ATTR
1 1
charge 1
@<TRIPOS>BOND
     1    15    16    1
     2    16    14    1
     3    14     3    1
     4     3     4    1
     5     3     1    1
     6     4     8   ar
     7     4     5   ar
     8     5     6   ar
     9     6     7   ar
    10     7     8   ar
    11     8     9    1
    12     9    10    1
    13     9    11    1
    14     9    12    1
    15    12    13    1
    16    17    18    1
    17    17     1    1
    18    18    23   ar
    19    18    19   ar
    20    19    20   ar
    21    20    21   ar
    22    21    22   ar
    23    21    24    1
    24    22    23   ar
    25    25    26    1
    26    25     1    1
    27    26    35   ar
    28    26    27   ar
    29    27    28   ar
    30    28    33   ar
    31    28    29   ar
    32    29    30   ar
    33    30    31   ar
    34    31    32   ar
    35    32    33   ar
    36    32    37    1
    37    33    34   ar
    38    34    35   ar
    39    35    36    2
    40    34    38    1
    41     1     2    1
@<TRIPOS>MOLECULE
ZINC13498460
 39 43 0 0 0
SMALL
GASTEIGER

@<TRIPOS>ATOM
      1 N          24.6479   38.6440   28.0678 N.4     1  UNL1        0.2841
      2 H          24.3879   38.9040   29.0193 H       1  UNL1        0.2077
      3 C          23.4278   38.2713   27.3214 C.3     1  UNL1        0.1382
      4 C          20.2579   39.3291   32.5290 C.ar    1  UNL1       -0.0221
      5 C          19.0288   38.8905   32.0549 C.ar    1  UNL1       -0.0028
      6 C          18.8984   38.4241   30.7648 C.ar    1  UNL1        0.0167
      7 C          20.0091   38.3896   29.9277 C.ar    1  UNL1        0.0588
      8 C          21.2534   38.8346   30.4121 C.ar    1  UNL1        0.0154
      9 C          21.3619   39.3050   31.7250 C.ar    1  UNL1       -0.0028
     10 C          22.4175   38.7890   29.5253 C.ar    1  UNL1        0.0076
     11 C          22.2512   38.3270   28.2614 C.ar    1  UNL1        0.0885
     12 C          20.9813   37.8925   27.8247 C.ar    1  UNL1        0.2591
     13 O          20.8547   37.4768   26.6860 O.2     1  UNL1       -0.2673
     14 N          19.9076   37.9262   28.6334 N.ar    1  UNL1       -0.3211
     15 H          19.0364   37.6154   28.2963 H       1  UNL1        0.1689
     16 C          19.7837   38.8037   34.9056 C.3     1  UNL1        0.0050
     17 C          20.3751   39.8359   33.9434 C.3     1  UNL1        0.0264
     18 C          25.5779   37.4963   28.1208 C.3     1  UNL1        0.1334
     19 C          25.5251   36.8943   29.5014 C.ar    1  UNL1        0.0326
     20 C          24.8899   37.5702   30.5263 C.ar    1  UNL1        0.0011
     21 C          24.8377   37.0160   31.7916 C.ar    1  UNL1       -0.0044
     22 C          25.4290   35.7903   32.0342 C.ar    1  UNL1       -0.0219
     23 C          26.0684   35.1166   31.0104 C.ar    1  UNL1       -0.0044
     24 C          26.1168   35.6688   29.7441 C.ar    1  UNL1        0.0011
     25 C          25.3762   35.1883   33.4148 C.3     1  UNL1        0.0310
     26 C          25.3053   39.7972   27.4177 C.3     1  UNL1        0.1166
     27 C          26.1129   40.5796   28.4211 C.ar    1  UNL1        0.2102
     28 N          25.8242   40.7623   29.6864 N.ar    1  UNL1       -0.1069
     29 N          26.7572   41.4819   30.2076 N.ar    1  UNL1       -0.0228
     30 N          27.6296   41.7695   29.3057 N.ar    1  UNL1       -0.0431
     31 N          27.2678   41.2313   28.1903 N.ar    1  UNL1       -0.2142
     32 C          27.9802   41.3137   26.9129 C.3     1  UNL1        0.1084
     33 C          29.4632   40.9373   27.1097 C.3     1  UNL1        0.0245
     34 C          30.2263   41.8923   26.1573 C.3     1  UNL1        0.0021
     35 C          29.4294   43.2141   26.2867 C.3     1  UNL1        0.0021
     36 C          27.9584   42.7605   26.3894 C.3     1  UNL1        0.0245
     37 C          24.2299   40.7015   26.8121 C.3     1  UNL1        0.0573
     38 C          23.9637   41.8780   27.7533 C.3     1  UNL1        0.0064
     39 C          24.7105   41.2296   25.4589 C.3     1  UNL1        0.0064
@<TRIPOS>UNITY_ATOM_ATTR
1 1
charge 1
@<TRIPOS>BOND
     1    16    17    1
     2    17     4    1
     3     4     9   ar
     4     4     5   ar
     5     5     6   ar
     6     6     7   ar
     7     7    14   ar
     8     7     8   ar
     9     8     9   ar
    10     8    10   ar
    11    10    11   ar
    12    11    12   ar
    13    11     3    1
    14    12    13    2
    15    12    14   ar
    16     3     1    1
    17    18    19    1
    18    18     1    1
    19    19    24   ar
    20    19    20   ar
    21    20    21   ar
    22    21    22   ar
    23    22    23   ar
    24    22    25    1
    25    23    24   ar
    26    26    27    1
    27    26    37    1
    28    26     1    1
    29    27    31   ar
    30    27    28   ar
    31    28    29   ar
    32    29    30   ar
    33    30    31   ar
    34    31    32    1
    35    32    36    1
    36    32    33    1
    37    33    34    1
    38    34    35    1
    39    35    36    1
    40    37    38    1
    41    37    39    1
    42    14    15    1
    43     1     2    1
@<TRIPOS>MOLECULE
ZINC13499680
 38 42 0 0 0
SMALL
GASTEIGER

@<TRIPOS>ATOM
      1 N          24.9364   38.4394   28.7080 N.4     1  UNL1        0.2845
      2 H          24.5790   37.4896   28.6046 H       1  UNL1        0.2077
      3 C          23.8629   39.3960   28.3656 C.3     1  UNL1        0.1169
      4 C          22.7566   38.6471   27.6683 C.ar    1  UNL1        0.2106
      5 N          22.8926   37.6242   26.8601 N.ar    1  UNL1       -0.1069
      6 N          21.7178   37.2648   26.4720 N.ar    1  UNL1       -0.0228
      7 N          20.8365   38.0370   27.0053 N.ar    1  UNL1       -0.0426
      8 N          21.4376   38.9023   27.7498 N.ar    1  UNL1       -0.2044
      9 C          20.8037   39.9638   28.5358 C.3     1  UNL1        0.1947
     10 C          20.0627   39.3542   29.6978 C.ar    1  UNL1        0.1477
     11 C          20.4857   39.3290   30.9744 C.ar    1  UNL1        0.0382
     12 C          19.4864   38.6670   31.7241 C.ar    1  UNL1        0.0435
     13 C          18.5163   38.3200   30.8593 C.ar    1  UNL1        0.1792
     14 O          18.8707   38.7387   29.6335 O.2     1  UNL1       -0.4527
     15 C          24.3990   40.4911   27.4413 C.3     1  UNL1        0.0632
     16 C          23.3168   42.6273   28.1543 C.3     1  UNL1        0.0002
     17 C          24.5900   41.7830   28.2384 C.3     1  UNL1        0.0064
     18 C          25.3653   38.6412   30.1080 C.3     1  UNL1        0.1399
     19 C          25.5047   37.2943   30.7694 C.ar    1  UNL1        0.0622
     20 C          24.5848   36.3072   30.8978 C.ar    1  UNL1        0.0084
     21 C          24.9391   35.1415   31.5508 C.ar    1  UNL1        0.0074
     22 C          26.1961   35.0200   32.0434 C.ar    1  UNL1        0.0353
     23 S          26.9267   36.5817   31.5802 S.2     1  UNL1       -0.0850
     24 C          26.0854   38.6219   27.7963 C.3     1  UNL1        0.1382
     25 C          26.2835   37.3530   27.0078 C.ar    1  UNL1        0.0885
     26 C          26.5747   36.1960   27.6520 C.ar    1  UNL1        0.0073
     27 C          26.7564   34.9798   26.8574 C.ar    1  UNL1        0.0114
     28 C          27.0524   33.7554   27.4656 C.ar    1  UNL1       -0.0205
     29 C          27.2201   32.6397   26.6956 C.ar    1  UNL1       -0.0045
     30 C          27.0993   32.7099   25.3142 C.ar    1  UNL1       -0.0032
     31 C          26.8087   33.9055   24.6935 C.ar    1  UNL1       -0.0062
     32 C          26.6331   35.0549   25.4572 C.ar    1  UNL1        0.0545
     33 N          26.3403   36.2637   24.8627 N.ar    1  UNL1       -0.3214
     34 C          26.1707   37.3745   25.6011 C.ar    1  UNL1        0.2591
     35 O          25.9134   38.4264   25.0417 O.2     1  UNL1       -0.2673
     36 C          26.6803   33.9672   23.1933 C.3     1  UNL1        0.0325
     37 C          27.1854   33.6675   28.9642 C.3     1  UNL1        0.0311
     38 H          26.2542   36.3145   23.8833 H       1  UNL1        0.1689
@<TRIPOS>UNITY_ATOM_ATTR
1 1
charge 1
@<TRIPOS>BOND
     1    16    17    1
     2    17    15    1
     3    15     3    1
     4     3     4    1
     5     3     1    1
     6     4     8   ar
     7     4     5   ar
     8     5     6   ar
     9     6     7   ar
    10     7     8   ar
    11     8     9    1
    12     9    10    1
    13    10    14   ar
    14    10    11   ar
    15    11    12   ar
    16    12    13   ar
    17    13    14   ar
    18    18    19    1
    19    18     1    1
    20    19    23   ar
    21    19    20   ar
    22    20    21   ar
    23    21    22   ar
    24    22    23   ar
    25    24    25    1
    26    24     1    1
    27    25    34   ar
    28    25    26   ar
    29    26    27   ar
    30    27    32   ar
    31    27    28   ar
    32    28    29   ar
    33    28    37    1
    34    29    30   ar
    35    30    31   ar
    36    31    32   ar
    37    31    36    1
    38    32    33   ar
    39    33    34   ar
    40    34    35    2
    41    33    38    1
    42     1     2    1
@<TRIPOS>MOLECULE
ZINC13499124
 37 40 0 0 0
SMALL
GASTEIGER

@<TRIPOS>ATOM
      1 N          24.4522   38.1476   28.8832 N.4     1  UNL1        0.2845
      2 H          24.2118   38.5120   29.8050 H       1  UNL1        0.2077
      3 C          24.8333   39.2745   28.0060 C.3     1  UNL1        0.1166
      4 N          25.1249   41.6744   28.8184 N.ar    1  UNL1       -0.2160
      5 C          25.4518   40.3689   28.8371 C.ar    1  UNL1        0.2101
      6 N          26.4165   40.2351   29.7144 N.ar    1  UNL1       -0.1069
      7 N          26.6653   41.3970   30.2124 N.ar    1  UNL1       -0.0228
      8 N          25.8845   42.2685   29.6756 N.ar    1  UNL1       -0.0431
      9 C          24.0973   42.3023   27.9843 C.3     1  UNL1        0.0897
     10 C          23.5541   43.5447   28.6930 C.3     1  UNL1        0.0245
     11 C          24.7080   42.7074   26.6412 C.3     1  UNL1        0.0245
     12 C          21.7760   41.6650   28.6539 C.3     1  UNL1        0.0020
     13 C          22.9565   41.3106   27.7474 C.3     1  UNL1        0.0226
     14 C          25.8540   38.7724   26.9827 C.3     1  UNL1        0.0573
     15 C          25.1667   38.5791   25.6295 C.3     1  UNL1        0.0064
     16 C          26.9805   39.7980   26.8406 C.3     1  UNL1        0.0064
     17 C          25.5849   37.2076   29.0188 C.3     1  UNL1        0.1399
     18 C          25.5018   36.5356   30.3650 C.ar    1  UNL1        0.0622
     19 C          24.8867   36.9617   31.4953 C.ar    1  UNL1        0.0084
     20 C          24.9407   36.1701   32.6270 C.ar    1  UNL1        0.0074
     21 C          25.6074   34.9911   32.5733 C.ar    1  UNL1        0.0353
     22 S          26.1814   34.9682   30.8830 S.2     1  UNL1       -0.0850
     23 C          23.2780   37.4460   28.3229 C.3     1  UNL1        0.1382
     24 C          22.0562   37.8344   29.1150 C.ar    1  UNL1        0.0885
     25 C          22.1967   38.4061   30.3365 C.ar    1  UNL1        0.0076
     26 C          20.9898   38.7754   31.0787 C.ar    1  UNL1        0.0154
     27 C          21.0711   39.3736   32.3406 C.ar    1  UNL1        0.0011
     28 C          19.9262   39.7017   33.0095 C.ar    1  UNL1       -0.0045
     29 C          18.6823   39.4476   32.4476 C.ar    1  UNL1       -0.0244
     30 C          18.5783   38.8601   31.2055 C.ar    1  UNL1       -0.0101
     31 C          19.7306   38.5167   30.5057 C.ar    1  UNL1        0.0545
     32 N          19.6560   37.9281   29.2612 N.ar    1  UNL1       -0.3214
     33 C          20.7698   37.5965   28.5852 C.ar    1  UNL1        0.2591
     34 O          20.6662   37.0776   27.4872 O.2     1  UNL1       -0.2673
     35 C          17.2216   38.5909   30.6072 C.3     1  UNL1        0.0322
     36 C          17.4327   39.8188   33.2038 C.3     1  UNL1        0.0307
     37 H          18.7744   37.7480   28.8618 H       1  UNL1        0.1689
@<TRIPOS>UNITY_ATOM_ATTR
1 1
charge 1
@<TRIPOS>BOND
     1    12    13    1
     2    13     9    1
     3     9    10    1
     4     9    11    1
     5     9     4    1
     6     4     8   ar
     7     4     5   ar
     8     5     6   ar
     9     5     3    1
    10     6     7   ar
    11     7     8   ar
    12     3    14    1
    13     3     1    1
    14    14    15    1
    15    14    16    1
    16    17    18    1
    17    17     1    1
    18    18    22   ar
    19    18    19   ar
    20    19    20   ar
    21    20    21   ar
    22    21    22   ar
    23    23    24    1
    24    23     1    1
    25    24    33   ar
    26    24    25   ar
    27    25    26   ar
    28    26    31   ar
    29    26    27   ar
    30    27    28   ar
    31    28    29   ar
    32    29    30   ar
    33    29    36    1
    34    30    31   ar
    35    30    35    1
    36    31    32   ar
    37    32    33   ar
    38    33    34    2
    39    32    37    1
    40     1     2    1
@<TRIPOS>MOLECULE
ZINC06149030
 41 45 0 0 0
SMALL
GASTEIGER

@<TRIPOS>ATOM
      1 C          26.1238   39.6164   27.1405 C.3     1  UNL1        0.1446
      2 C          26.3847   38.1616   27.4346 C.ar    1  UNL1        0.0901
      3 C          26.2295   37.6890   28.6960 C.ar    1  UNL1        0.0075
      4 C          26.4903   36.2706   28.9484 C.ar    1  UNL1        0.0117
      5 C          26.3481   35.7256   30.2288 C.ar    1  UNL1       -0.0208
      6 C          26.5995   34.3983   30.4315 C.ar    1  UNL1       -0.0084
      7 C          26.9945   33.5852   29.3778 C.ar    1  UNL1       -0.0207
      8 C          27.1410   34.1004   28.1082 C.ar    1  UNL1        0.0128
      9 C          26.8910   35.4495   27.8777 C.ar    1  UNL1        0.0582
     10 N          27.0301   35.9918   26.6179 N.ar    1  UNL1       -0.3211
     11 C          26.7883   37.2956   26.3958 C.ar    1  UNL1        0.2594
     12 O          26.9214   37.7411   25.2690 O.2     1  UNL1       -0.2673
     13 C          27.2654   32.1234   29.6251 C.3     1  UNL1        0.0311
     14 C          25.9190   36.5989   31.3795 C.3     1  UNL1        0.0311
     15 H          27.3105   35.4162   25.8702 H       1  UNL1        0.1689
     16 N          28.0559   41.0210   28.0345 N.ar    1  UNL1       -0.2157
     17 C          26.8342   40.4701   28.1592 C.ar    1  UNL1        0.2148
     18 N          26.3845   40.8155   29.3410 N.ar    1  UNL1       -0.1065
     19 N          27.2810   41.5450   29.9102 N.ar    1  UNL1       -0.0228
     20 N          28.2910   41.6738   29.1223 N.ar    1  UNL1       -0.0431
     21 C          28.9493   40.9043   26.8793 C.3     1  UNL1        0.0897
     22 C          30.0138   42.0013   26.9450 C.3     1  UNL1        0.0245
     23 C          29.6280   39.5332   26.8960 C.3     1  UNL1        0.0245
     24 C          27.8246   42.5358   25.3576 C.3     1  UNL1        0.0020
     25 C          28.1388   41.0566   25.5906 C.3     1  UNL1        0.0226
     26 N          24.6717   39.8770   27.2320 N.4     1  UNL1        0.2896
     27 H          24.4385   40.1189   28.1950 H       1  UNL1        0.2082
     28 C          23.9161   38.6673   26.8443 C.3     1  UNL1        0.1339
     29 C          22.7770   38.4744   27.8119 C.ar    1  UNL1        0.0328
     30 C          21.5112   38.1824   27.3390 C.ar    1  UNL1        0.0037
     31 C          20.4667   38.0005   28.2256 C.ar    1  UNL1        0.0295
     32 C          20.6863   38.1213   29.5873 C.ar    1  UNL1        0.1401
     33 C          21.9534   38.4190   30.0594 C.ar    1  UNL1        0.0295
     34 C          22.9974   38.5952   29.1712 C.ar    1  UNL1        0.0037
     35 F          19.6650   37.9483   30.4546 F       1  UNL1       -0.2042
     36 C          24.3046   41.0057   26.3510 C.3     1  UNL1        0.1717
     37 C          23.9367   42.1872   27.2110 C.ar    1  UNL1        0.1780
     38 C          23.1243   42.1576   28.2827 C.ar    1  UNL1        0.0422
     39 C          23.0588   43.4781   28.7838 C.ar    1  UNL1        0.0436
     40 C          23.8351   44.2357   27.9883 C.ar    1  UNL1        0.1794
     41 O          24.3688   43.4474   27.0409 O.2     1  UNL1       -0.4488
@<TRIPOS>UNITY_ATOM_ATTR
26 1
charge 1
@<TRIPOS>BOND
     1    24    25    1
     2    25    21    1
     3    21    22    1
     4    21    23    1
     5    21    16    1
     6    16    20   ar
     7    16    17   ar
     8    17    18   ar
     9    17     1    1
    10    18    19   ar
    11    19    20   ar
    12     1     2    1
    13     1    26    1
    14     2    11   ar
    15     2     3   ar
    16     3     4   ar
    17     4     9   ar
    18     4     5   ar
    19     5     6   ar
    20     5    14    1
    21     6     7   ar
    22     7     8   ar
    23     7    13    1
    24     8     9   ar
    25     9    10   ar
    26    10    11   ar
    27    11    12    2
    28    28    29    1
    29    28    26    1
    30    29    34   ar
    31    29    30   ar
    32    30    31   ar
    33    31    32   ar
    34    32    33   ar
    35    32    35    1
    36    33    34   ar
    37    36    37    1
    38    36    26    1
    39    37    41   ar
    40    37    38   ar
    41    38    39   ar
    42    39    40   ar
    43    40    41   ar
    44    10    15    1
    45    26    27    1
@<TRIPOS>MOLECULE
ZINC08624845
 39 43 0 0 0
SMALL
GASTEIGER

@<TRIPOS>ATOM
      1 N          23.6911   39.4217   28.2790 N.4     1  UNL1        0.2865
      2 H          24.5508   39.9268   28.4939 H       1  UNL1        0.2078
      3 C          23.3137   38.5978   29.4466 C.3     1  UNL1        0.1170
      4 C          21.9473   37.9944   29.2471 C.ar    1  UNL1        0.2103
      5 N          21.6156   37.0821   28.3664 N.ar    1  UNL1       -0.1069
      6 N          20.3607   36.8281   28.5099 N.ar    1  UNL1       -0.0228
      7 N          19.8832   37.5545   29.4594 N.ar    1  UNL1       -0.0430
      8 N          20.8317   38.2835   29.9426 N.ar    1  UNL1       -0.2119
      9 C          20.7157   39.2473   31.0399 C.3     1  UNL1        0.1354
     10 C          19.4636   38.9356   31.8621 C.3     1  UNL1        0.0528
     11 C          19.4876   39.7380   33.1375 C.ar    1  UNL1       -0.0202
     12 C          18.4211   40.5565   33.4593 C.ar    1  UNL1       -0.0042
     13 C          18.4408   41.2884   34.6318 C.ar    1  UNL1       -0.0003
     14 C          19.5318   41.2103   35.4771 C.ar    1  UNL1       -0.0000
     15 C          20.6008   40.3963   35.1525 C.ar    1  UNL1       -0.0003
     16 C          20.5785   39.6599   33.9828 C.ar    1  UNL1       -0.0042
     17 C          24.3627   37.0156   31.0709 C.3     1  UNL1        0.0066
     18 C          24.3453   37.4802   29.6132 C.3     1  UNL1        0.0632
     19 C          22.6217   40.3982   27.9830 C.3     1  UNL1        0.1713
     20 C          23.0995   41.7730   28.3737 C.ar    1  UNL1        0.1780
     21 C          22.3169   42.8447   28.5941 C.ar    1  UNL1        0.0422
     22 C          23.1752   43.9156   28.9338 C.ar    1  UNL1        0.0436
     23 C          24.4308   43.4344   28.9006 C.ar    1  UNL1        0.1794
     24 O          24.3785   42.1347   28.5664 O.2     1  UNL1       -0.4488
     25 C          23.9240   38.5559   27.1039 C.3     1  UNL1        0.1382
     26 C          24.5042   39.3949   25.9946 C.ar    1  UNL1        0.0856
     27 C          23.8890   39.4392   24.7788 C.ar    1  UNL1        0.0075
     28 C          24.4617   40.2395   23.7702 C.ar    1  UNL1        0.0172
     29 C          23.8785   40.3362   22.4970 C.ar    1  UNL1       -0.0028
     30 C          24.4630   41.1165   21.5461 C.ar    1  UNL1       -0.0221
     31 C          25.6336   41.8204   21.8199 C.ar    1  UNL1       -0.0070
     32 C          26.2255   41.7492   23.0436 C.ar    1  UNL1       -0.0044
     33 C          25.6516   40.9546   24.0510 C.ar    1  UNL1        0.0804
     34 N          26.2119   40.8673   25.2625 N.ar    1  UNL1       -0.2122
     35 C          25.6790   40.1256   26.2094 C.ar    1  UNL1        0.2229
     36 O          26.2822   40.0670   27.4220 O.3     1  UNL1       -0.4920
     37 C          27.4910   42.5202   23.3176 C.3     1  UNL1        0.0326
     38 C          23.8356   41.2194   20.1798 C.3     1  UNL1        0.0310
     39 H          25.9122   39.5421   28.1044 H       1  UNL1        0.2937
@<TRIPOS>UNITY_ATOM_ATTR
1 1
charge 1
@<TRIPOS>BOND
     1    17    18    1
     2    18     3    1
     3     3     4    1
     4     3     1    1
     5     4     8   ar
     6     4     5   ar
     7     5     6   ar
     8     6     7   ar
     9     7     8   ar
    10     8     9    1
    11     9    10    1
    12    10    11    1
    13    11    16   ar
    14    11    12   ar
    15    12    13   ar
    16    13    14   ar
    17    14    15   ar
    18    15    16   ar
    19    19    20    1
    20    19     1    1
    21    20    24   ar
    22    20    21   ar
    23    21    22   ar
    24    22    23   ar
    25    23    24   ar
    26    25    26    1
    27    25     1    1
    28    26    35   ar
    29    26    27   ar
    30    27    28   ar
    31    28    33   ar
    32    28    29   ar
    33    29    30   ar
    34    30    31   ar
    35    30    38    1
    36    31    32   ar
    37    32    33   ar
    38    32    37    1
    39    33    34   ar
    40    34    35   ar
    41    35    36    1
    42    36    39    1
    43     1     2    1
@<TRIPOS>MOLECULE
ZINC13500776
 39 43 0 0 0
SMALL
GASTEIGER

@<TRIPOS>ATOM
      1 N          23.9816   39.0846   28.4684 N.4     1  UNL1        0.2841
      2 H          23.8380   39.6279   29.3197 H       1  UNL1        0.2077
      3 C          25.4256   38.8112   28.3110 C.3     1  UNL1        0.1168
      4 C          26.2000   39.9677   28.8888 C.ar    1  UNL1        0.2105
      5 N          25.9410   40.6029   30.0057 N.ar    1  UNL1       -0.1069
      6 N          26.8280   41.5255   30.1536 N.ar    1  UNL1       -0.0228
      7 N          27.6493   41.4918   29.1629 N.ar    1  UNL1       -0.0427
      8 N          27.2923   40.5485   28.3585 N.ar    1  UNL1       -0.2077
      9 C          27.9550   40.1753   27.1064 C.3     1  UNL1        0.1571
     10 C          27.3176   40.9174   25.9601 C.ar    1  UNL1        0.0022
     11 C          27.5889   42.2594   25.7694 C.ar    1  UNL1       -0.0023
     12 C          27.0042   42.9401   24.7179 C.ar    1  UNL1       -0.0003
     13 C          26.1441   42.2802   23.8603 C.ar    1  UNL1       -0.0000
     14 C          25.8768   40.9369   24.0479 C.ar    1  UNL1       -0.0003
     15 C          26.4619   40.2561   25.0991 C.ar    1  UNL1       -0.0023
     16 C          25.8086   37.5239   29.0440 C.3     1  UNL1        0.0632
     17 C          26.2922   36.8066   26.7001 C.3     1  UNL1        0.0002
     18 C          26.7377   36.6904   28.1592 C.3     1  UNL1        0.0064
     19 C          23.4860   39.8624   27.3132 C.3     1  UNL1        0.1334
     20 C          23.3475   41.3052   27.7255 C.ar    1  UNL1        0.0327
     21 C          24.2573   42.2434   27.2746 C.ar    1  UNL1        0.0014
     22 C          24.1271   43.5678   27.6485 C.ar    1  UNL1       -0.0001
     23 C          23.0935   43.9523   28.4820 C.ar    1  UNL1       -0.0000
     24 C          22.1871   43.0132   28.9375 C.ar    1  UNL1       -0.0001
     25 C          22.3139   41.6898   28.5591 C.ar    1  UNL1        0.0014
     26 C          23.2358   37.8133   28.5786 C.3     1  UNL1        0.1382
     27 C          21.9381   38.0789   29.2971 C.ar    1  UNL1        0.0885
     28 C          21.9511   38.6561   30.5241 C.ar    1  UNL1        0.0076
     29 C          20.6731   38.9048   31.1936 C.ar    1  UNL1        0.0154
     30 C          20.6225   39.5008   32.4581 C.ar    1  UNL1       -0.0028
     31 C          19.4142   39.7139   33.0585 C.ar    1  UNL1       -0.0218
     32 C          18.2354   39.3440   32.4249 C.ar    1  UNL1       -0.0028
     33 C          18.2612   38.7563   31.1788 C.ar    1  UNL1        0.0167
     34 C          19.4802   38.5288   30.5479 C.ar    1  UNL1        0.0588
     35 N          19.5355   37.9409   29.3023 N.ar    1  UNL1       -0.3211
     36 C          20.7138   37.7208   28.6931 C.ar    1  UNL1        0.2591
     37 O          20.7249   37.1992   27.5916 O.2     1  UNL1       -0.2673
     38 C          19.3600   40.3561   34.4207 C.3     1  UNL1        0.0310
     39 H          18.7002   37.6785   28.8522 H       1  UNL1        0.1689
@<TRIPOS>UNITY_ATOM_ATTR
1 1
charge 1
@<TRIPOS>BOND
     1    17    18    1
     2    18    16    1
     3    16     3    1
     4     3     4    1
     5     3     1    1
     6     4     8   ar
     7     4     5   ar
     8     5     6   ar
     9     6     7   ar
    10     7     8   ar
    11     8     9    1
    12     9    10    1
    13    10    15   ar
    14    10    11   ar
    15    11    12   ar
    16    12    13   ar
    17    13    14   ar
    18    14    15   ar
    19    19    20    1
    20    19     1    1
    21    20    25   ar
    22    20    21   ar
    23    21    22   ar
    24    22    23   ar
    25    23    24   ar
    26    24    25   ar
    27    26    27    1
    28    26     1    1
    29    27    36   ar
    30    27    28   ar
    31    28    29   ar
    32    29    34   ar
    33    29    30   ar
    34    30    31   ar
    35    31    32   ar
    36    31    38    1
    37    32    33   ar
    38    33    34   ar
    39    34    35   ar
    40    35    36   ar
    41    36    37    2
    42    35    39    1
    43     1     2    1
@<TRIPOS>MOLECULE
ZINC13494832
 39 43 0 0 0
SMALL
GASTEIGER

@<TRIPOS>ATOM
      1 N          24.2334   37.9500   29.6394 N.4     1  UNL1        0.2841
      2 H          23.9946   37.9849   30.6305 H       1  UNL1        0.2077
      3 C          24.7244   39.2785   29.2169 C.3     1  UNL1        0.1168
      4 C          24.4475   39.4624   27.7470 C.ar    1  UNL1        0.2106
      5 N          25.0327   38.8352   26.7559 N.ar    1  UNL1       -0.1069
      6 N          24.5209   39.2660   25.6548 N.ar    1  UNL1       -0.0228
      7 N          23.6298   40.1573   25.9175 N.ar    1  UNL1       -0.0426
      8 N          23.5552   40.3066   27.1967 N.ar    1  UNL1       -0.2044
      9 C          22.6666   41.2233   27.9154 C.3     1  UNL1        0.1947
     10 C          23.3595   42.5477   28.1068 C.ar    1  UNL1        0.1477
     11 C          22.9515   43.5388   28.9198 C.ar    1  UNL1        0.0382
     12 C          23.8915   44.5870   28.7915 C.ar    1  UNL1        0.0435
     13 C          24.8133   44.1771   27.9016 C.ar    1  UNL1        0.1792
     14 O          24.4860   42.9412   27.4903 O.2     1  UNL1       -0.4527
     15 C          26.7343   40.7617   29.1641 C.3     1  UNL1        0.0066
     16 C          26.2327   39.3478   29.4642 C.3     1  UNL1        0.0632
     17 C          25.2868   36.9337   29.4348 C.3     1  UNL1        0.1334
     18 C          25.6610   36.3498   30.7728 C.ar    1  UNL1        0.0326
     19 C          24.7631   36.3967   31.8229 C.ar    1  UNL1        0.0011
     20 C          25.1045   35.8573   33.0489 C.ar    1  UNL1       -0.0044
     21 C          26.3476   35.2795   33.2278 C.ar    1  UNL1       -0.0219
     22 C          27.2473   35.2369   32.1792 C.ar    1  UNL1       -0.0044
     23 C          26.9042   35.7725   30.9518 C.ar    1  UNL1        0.0011
     24 C          26.7217   34.6957   34.5657 C.3     1  UNL1        0.0310
     25 C          23.0260   37.5887   28.8670 C.3     1  UNL1        0.1382
     26 C          21.7804   37.9740   29.6226 C.ar    1  UNL1        0.0885
     27 C          21.8834   38.5545   30.8437 C.ar    1  UNL1        0.0076
     28 C          20.6543   38.9169   31.5518 C.ar    1  UNL1        0.0151
     29 C          20.6969   39.5185   32.8140 C.ar    1  UNL1       -0.0029
     30 C          19.5319   39.8450   33.4481 C.ar    1  UNL1       -0.0221
     31 C          18.3056   39.5848   32.8513 C.ar    1  UNL1       -0.0071
     32 C          18.2398   38.9933   31.6083 C.ar    1  UNL1       -0.0065
     33 C          19.4130   38.6516   30.9435 C.ar    1  UNL1        0.0548
     34 N          19.3766   38.0594   29.6991 N.ar    1  UNL1       -0.3214
     35 C          20.5108   37.7349   29.0541 C.ar    1  UNL1        0.2591
     36 O          20.4409   37.2167   27.9532 O.2     1  UNL1       -0.2673
     37 C          16.9018   38.7167   30.9722 C.3     1  UNL1        0.0325
     38 C          19.5781   40.4926   34.8081 C.3     1  UNL1        0.0310
     39 H          18.5074   37.8713   29.2765 H       1  UNL1        0.1689
@<TRIPOS>UNITY_ATOM_ATTR
1 1
charge 1
@<TRIPOS>BOND
     1    15    16    1
     2    16     3    1
     3     3     4    1
     4     3     1    1
     5     4     8   ar
     6     4     5   ar
     7     5     6   ar
     8     6     7   ar
     9     7     8   ar
    10     8     9    1
    11     9    10    1
    12    10    14   ar
    13    10    11   ar
    14    11    12   ar
    15    12    13   ar
    16    13    14   ar
    17    17    18    1
    18    17     1    1
    19    18    23   ar
    20    18    19   ar
    21    19    20   ar
    22    20    21   ar
    23    21    22   ar
    24    21    24    1
    25    22    23   ar
    26    25    26    1
    27    25     1    1
    28    26    35   ar
    29    26    27   ar
    30    27    28   ar
    31    28    33   ar
    32    28    29   ar
    33    29    30   ar
    34    30    31   ar
    35    30    38    1
    36    31    32   ar
    37    32    33   ar
    38    32    37    1
    39    33    34   ar
    40    34    35   ar
    41    35    36    2
    42    34    39    1
    43     1     2    1
@<TRIPOS>MOLECULE
ZINC02108948
 36 39 0 0 0
SMALL
GASTEIGER

@<TRIPOS>ATOM
      1 C          24.8074   39.2320   25.7197 C.2     1  UNL1       -0.0341
      2 S          24.1894   39.7251   24.2012 S.2     1  UNL1       -0.0617
      3 N          24.0179   39.2649   26.8115 N.am    1  UNL1       -0.2955
      4 C          22.8657   38.5658   26.8312 C.2     1  UNL1        0.2485
      5 O          22.5389   37.9058   25.8645 O.2     1  UNL1       -0.2698
      6 H          24.2827   39.7996   27.5946 H       1  UNL1        0.1538
      7 C          22.0000   38.6018   28.0282 C.ar    1  UNL1        0.0536
      8 C          21.5257   37.4134   28.5865 C.ar    1  UNL1        0.0043
      9 C          20.7182   37.4542   29.7043 C.ar    1  UNL1       -0.0022
     10 C          20.3783   38.6693   30.2720 C.ar    1  UNL1        0.0021
     11 C          20.8403   39.8512   29.7203 C.ar    1  UNL1       -0.0022
     12 C          21.6531   39.8245   28.6061 C.ar    1  UNL1        0.0043
     13 C          19.4958   38.7060   31.4930 C.3     1  UNL1        0.1539
     14 N          18.0934   38.7974   31.0794 N.ar    1  UNL1       -0.2444
     15 C          17.0601   39.1876   31.8558 C.ar    1  UNL1        0.1037
     16 C          15.9371   39.1412   31.1014 C.ar    1  UNL1        0.0741
     17 C          16.2952   38.6986   29.8234 C.ar    1  UNL1        0.1283
     18 N          17.5878   38.4959   29.8082 N.ar    1  UNL1       -0.1668
     19 BR         14.1920   39.5903   31.6749 Br      1  UNL1       -0.0457
     20 N          26.0835   38.8109   25.8233 N.am    1  UNL1       -0.6218
     21 C          27.7043   32.9011   27.6402 C.3     1  UNL1        0.0052
     22 C          26.9835   33.4623   28.8694 C.3     1  UNL1        0.0050
     23 C          27.2448   34.9651   28.9846 C.3     1  UNL1        0.0267
     24 C          26.9021   35.6258   27.6550 C.ar    1  UNL1       -0.0153
     25 C          26.8053   34.8987   26.5215 C.ar    1  UNL1        0.0017
     26 S          26.3887   36.0729   25.2637 S.2     1  UNL1       -0.1163
     27 C          26.3540   37.5134   26.2257 C.ar    1  UNL1       -0.0865
     28 C          26.6574   37.0504   27.4997 C.ar    1  UNL1        0.0550
     29 C          27.0044   33.4214   26.3763 C.3     1  UNL1        0.0326
     30 C          27.3285   30.8506   26.2631 C.3     1  UNL1        0.0000
     31 C          27.6471   31.3724   27.6656 C.3     1  UNL1        0.0004
     32 C          26.7287   37.9624   28.6426 C.2     1  UNL1        0.3396
     33 O          27.8094   38.3462   29.0481 O.2     1  UNL1       -0.2450
     34 O          25.5958   38.3772   29.2460 O.3     1  UNL1       -0.4455
     35 C          25.3512   37.8932   30.5930 C.3     1  UNL1        0.2089
     36 C          24.3568   36.7315   30.5448 C.3     1  UNL1        0.0513
@<TRIPOS>UNITY_ATOM_ATTR
20 1
charge -1
@<TRIPOS>BOND
     1    30    31    1
     2    31    21    1
     3    21    29    1
     4    21    22    1
     5    22    23    1
     6    23    24    1
     7    24    28   ar
     8    24    25   ar
     9    25    26   ar
    10    25    29    1
    11    26    27   ar
    12    27    28   ar
    13    27    20    1
    14    28    32    1
    15    32    33    2
    16    32    34    1
    17    34    35    1
    18    35    36    1
    19    20     1    1
    20     1     2    2
    21     1     3    1
    22     3     4   am
    23     4     5    2
    24     4     7    1
    25     7    12   ar
    26     7     8   ar
    27     8     9   ar
    28     9    10   ar
    29    10    11   ar
    30    10    13    1
    31    11    12   ar
    32    13    14    1
    33    14    18   ar
    34    14    15   ar
    35    15    16   ar
    36    16    17   ar
    37    16    19    1
    38    17    18   ar
    39     3     6    1
@<TRIPOS>MOLECULE
ZINC12397081
 34 37 0 0 0
SMALL
GASTEIGER

@<TRIPOS>ATOM
      1 N          12.0638   36.8607   28.3166 N.am    1  UNL1       -0.3040
      2 C          13.0160   37.5385   28.9877 C.2     1  UNL1        0.2225
      3 O          13.9580   38.0136   28.3893 O.2     1  UNL1       -0.2751
      4 H          11.2992   36.4751   28.8023 H       1  UNL1        0.1494
      5 C          12.1666   36.6978   26.8643 C.3     1  UNL1        0.0946
      6 C          10.7635   36.6355   26.2575 C.3     1  UNL1        0.0542
      7 C          10.6088   39.6431   23.3451 C.ar    1  UNL1        0.0473
      8 C          10.3908   38.3714   22.8884 C.ar    1  UNL1        0.0082
      9 C          10.4316   37.3279   23.7893 C.ar    1  UNL1        0.0028
     10 C          10.6748   37.5931   25.0973 C.ar    1  UNL1        0.0090
     11 S          10.8708   39.3675   25.0895 S.2     1  UNL1       -0.0897
     12 C          11.9268   42.4319   19.4295 C.3     1  UNL1        0.0594
     13 C          11.2691   42.1369   20.7530 C.ar    1  UNL1        0.0886
     14 N          11.2519   41.0137   21.4284 N.ar    1  UNL1       -0.2422
     15 C          10.6228   40.9148   22.5900 C.ar    1  UNL1        0.0939
     16 C           9.9805   42.0279   23.0668 C.ar    1  UNL1        0.0561
     17 S          10.3441   43.1995   21.7675 S.2     1  UNL1       -0.0702
     18 C          12.9104   37.7061   30.4816 C.3     1  UNL1        0.0850
     19 C          11.9970   38.8919   30.7984 C.3     1  UNL1        0.0096
     20 C          12.6609   39.7795   31.8531 C.3     1  UNL1        0.0025
     21 C          14.1118   39.3366   32.0524 C.3     1  UNL1        0.0246
     22 C          15.0529   40.4624   31.6192 C.3     1  UNL1        0.1077
     23 N          16.3753   40.2488   32.2122 N.ar    1  UNL1       -0.3103
     24 C          16.7436   40.9755   33.2895 C.ar    1  UNL1        0.2580
     25 O          15.9923   41.8014   33.7712 O.2     1  UNL1       -0.2671
     26 C          18.0798   40.7412   33.8663 C.ar    1  UNL1        0.0340
     27 C          18.5328   41.4495   34.9766 C.ar    1  UNL1        0.0029
     28 C          19.7914   41.1927   35.4789 C.ar    1  UNL1        0.0000
     29 C          20.6027   40.2377   34.8854 C.ar    1  UNL1       -0.0018
     30 C          20.1654   39.5288   33.7842 C.ar    1  UNL1       -0.0238
     31 C          18.9029   39.7729   33.2655 C.ar    1  UNL1       -0.1133
     32 N          18.4251   39.0827   32.1613 N.ar    1  UNL1       -0.6386
     33 C          17.1980   39.3348   31.6742 C.ar    1  UNL1       -0.0162
     34 S          16.6615   38.4525   30.3086 S.2     1  UNL1       -0.0582
@<TRIPOS>UNITY_ATOM_ATTR
32 1
charge -1
@<TRIPOS>BOND
     1    12    13    1
     2    13    17   ar
     3    13    14   ar
     4    14    15   ar
     5    15    16   ar
     6    15     7    1
     7    16    17   ar
     8     7    11   ar
     9     7     8   ar
    10     8     9   ar
    11     9    10   ar
    12    10    11   ar
    13    10     6    1
    14     6     5    1
    15     5     1    1
    16     1     2   am
    17     2     3    2
    18     2    18    1
    19    18    19    1
    20    19    20    1
    21    20    21    1
    22    21    22    1
    23    22    23    1
    24    23    33   ar
    25    23    24   ar
    26    24    25    2
    27    24    26   ar
    28    26    31   ar
    29    26    27   ar
    30    27    28   ar
    31    28    29   ar
    32    29    30   ar
    33    30    31   ar
    34    31    32   ar
    35    32    33   ar
    36    33    34    2
    37     1     4    1
@<TRIPOS>MOLECULE
ZINC13498450
 39 43 0 0 0
SMALL
GASTEIGER

@<TRIPOS>ATOM
      1 N          24.6817   38.5220   28.3063 N.4     1  UNL1        0.2865
      2 H          24.4368   38.8508   29.2402 H       1  UNL1        0.2078
      3 C          23.4509   38.0892   27.6116 C.3     1  UNL1        0.1383
      4 C          20.2158   39.3682   32.7287 C.ar    1  UNL1       -0.0221
      5 C          18.9924   38.9105   32.2580 C.ar    1  UNL1       -0.0028
      6 C          18.8780   38.3898   30.9872 C.ar    1  UNL1        0.0167
      7 C          19.9993   38.3193   30.1666 C.ar    1  UNL1        0.0588
      8 C          21.2378   38.7839   30.6475 C.ar    1  UNL1        0.0154
      9 C          21.3299   39.3095   31.9407 C.ar    1  UNL1       -0.0028
     10 C          22.4130   38.7004   29.7784 C.ar    1  UNL1        0.0076
     11 C          22.2624   38.1852   28.5332 C.ar    1  UNL1        0.0885
     12 C          20.9979   37.7332   28.0992 C.ar    1  UNL1        0.2591
     13 O          20.8853   37.2696   26.9775 O.2     1  UNL1       -0.2673
     14 N          19.9139   37.8015   28.8918 N.ar    1  UNL1       -0.3211
     15 H          19.0469   37.4770   28.5570 H       1  UNL1        0.1689
     16 C          19.7581   38.9222   35.1248 C.3     1  UNL1        0.0050
     17 C          20.3154   39.9344   34.1218 C.3     1  UNL1        0.0264
     18 C          25.6191   37.3858   28.4280 C.3     1  UNL1        0.1713
     19 C          25.7518   37.0239   29.8850 C.ar    1  UNL1        0.1780
     20 C          24.8657   36.3096   30.6018 C.ar    1  UNL1        0.0422
     21 C          25.3852   36.2096   31.9129 C.ar    1  UNL1        0.0436
     22 C          26.5578   36.8687   31.9187 C.ar    1  UNL1        0.1794
     23 O          26.7774   37.3550   30.6863 O.2     1  UNL1       -0.4488
     24 C          25.3207   39.6266   27.5604 C.3     1  UNL1        0.1168
     25 C          26.1095   40.4801   28.5198 C.ar    1  UNL1        0.2105
     26 N          25.8502   40.6740   29.7899 N.ar    1  UNL1       -0.1069
     27 N          26.7518   41.4626   30.2643 N.ar    1  UNL1       -0.0228
     28 N          27.5828   41.7724   29.3310 N.ar    1  UNL1       -0.0427
     29 N          27.2175   41.1909   28.2388 N.ar    1  UNL1       -0.2077
     30 C          27.8864   41.2820   26.9388 C.3     1  UNL1        0.1571
     31 C          28.0820   42.7313   26.5749 C.ar    1  UNL1        0.0022
     32 C          26.9996   43.5908   26.5534 C.ar    1  UNL1       -0.0023
     33 C          27.1791   44.9200   26.2192 C.ar    1  UNL1       -0.0003
     34 C          28.4401   45.3886   25.9013 C.ar    1  UNL1       -0.0000
     35 C          29.5234   44.5303   25.9280 C.ar    1  UNL1       -0.0003
     36 C          29.3440   43.2011   26.2622 C.ar    1  UNL1       -0.0023
     37 C          24.2283   40.4732   26.9042 C.3     1  UNL1        0.0573
     38 C          23.9870   41.7316   27.7402 C.3     1  UNL1        0.0064
     39 C          24.6709   40.8739   25.4954 C.3     1  UNL1        0.0064
@<TRIPOS>UNITY_ATOM_ATTR
1 1
charge 1
@<TRIPOS>BOND
     1    16    17    1
     2    17     4    1
     3     4     9   ar
     4     4     5   ar
     5     5     6   ar
     6     6     7   ar
     7     7    14   ar
     8     7     8   ar
     9     8     9   ar
    10     8    10   ar
    11    10    11   ar
    12    11    12   ar
    13    11     3    1
    14    12    13    2
    15    12    14   ar
    16     3     1    1
    17    18    19    1
    18    18     1    1
    19    19    23   ar
    20    19    20   ar
    21    20    21   ar
    22    21    22   ar
    23    22    23   ar
    24    24    25    1
    25    24    37    1
    26    24     1    1
    27    25    29   ar
    28    25    26   ar
    29    26    27   ar
    30    27    28   ar
    31    28    29   ar
    32    29    30    1
    33    30    31    1
    34    31    36   ar
    35    31    32   ar
    36    32    33   ar
    37    33    34   ar
    38    34    35   ar
    39    35    36   ar
    40    37    38    1
    41    37    39    1
    42    14    15    1
    43     1     2    1
@<TRIPOS>MOLECULE
ZINC13500933
 39 43 0 0 0
SMALL
GASTEIGER

@<TRIPOS>ATOM
      1 N          24.4737   37.8260   27.4156 N.4     1  UNL1        0.2865
      2 H          24.2451   36.8503   27.6056 H       1  UNL1        0.2078
      3 C          23.4067   38.6859   27.9694 C.3     1  UNL1        0.1170
      4 C          22.1517   37.8664   28.1257 C.ar    1  UNL1        0.2105
      5 N          21.5981   37.1015   27.2166 N.ar    1  UNL1       -0.1069
      6 N          20.5403   36.5750   27.7300 N.ar    1  UNL1       -0.0228
      7 N          20.4075   36.9799   28.9448 N.ar    1  UNL1       -0.0427
      8 N          21.3833   37.7753   29.2271 N.ar    1  UNL1       -0.2077
      9 C          21.6092   38.4562   30.5044 C.3     1  UNL1        0.1571
     10 C          20.2830   38.7771   31.1442 C.ar    1  UNL1        0.0022
     11 C          20.2428   39.3525   32.4004 C.ar    1  UNL1       -0.0023
     12 C          19.0262   39.6467   32.9871 C.ar    1  UNL1       -0.0003
     13 C          17.8498   39.3608   32.3199 C.ar    1  UNL1       -0.0000
     14 C          17.8902   38.7902   31.0614 C.ar    1  UNL1       -0.0003
     15 C          19.1067   38.4963   30.4744 C.ar    1  UNL1       -0.0023
     16 C          23.1314   39.8673   27.0370 C.3     1  UNL1        0.0632
     17 C          21.9959   41.5609   28.4808 C.3     1  UNL1        0.0002
     18 C          23.3144   41.1773   27.8059 C.3     1  UNL1        0.0064
     19 C          24.5710   38.0202   25.9536 C.3     1  UNL1        0.1713
     20 C          25.7207   37.1997   25.4281 C.ar    1  UNL1        0.1780
     21 C          26.8657   37.6865   24.9170 C.ar    1  UNL1        0.0422
     22 C          27.6565   36.5734   24.5503 C.ar    1  UNL1        0.0436
     23 C          26.9475   35.4729   24.8592 C.ar    1  UNL1        0.1794
     24 O          25.7781   35.8583   25.3959 O.2     1  UNL1       -0.4488
     25 C          25.7662   38.1496   28.0553 C.3     1  UNL1        0.1383
     26 C          26.0085   37.1714   29.1758 C.ar    1  UNL1        0.0885
     27 C          26.3221   35.8832   28.8918 C.ar    1  UNL1        0.0076
     28 C          26.5563   34.9591   30.0031 C.ar    1  UNL1        0.0151
     29 C          26.8869   33.6195   29.7729 C.ar    1  UNL1       -0.0029
     30 C          27.0930   32.7814   30.8317 C.ar    1  UNL1       -0.0221
     31 C          26.9770   33.2470   32.1344 C.ar    1  UNL1       -0.0071
     32 C          26.6532   34.5629   32.3848 C.ar    1  UNL1       -0.0065
     33 C          26.4382   35.4350   31.3225 C.ar    1  UNL1        0.0548
     34 N          26.1112   36.7558   31.5440 N.ar    1  UNL1       -0.3214
     35 C          25.9026   37.5982   30.5169 C.ar    1  UNL1        0.2591
     36 O          25.6144   38.7593   30.7500 O.2     1  UNL1       -0.2673
     37 C          26.5314   35.0551   33.8040 C.3     1  UNL1        0.0325
     38 C          27.4492   31.3383   30.5833 C.3     1  UNL1        0.0310
     39 H          26.0293   37.0871   32.4675 H       1  UNL1        0.1689
@<TRIPOS>UNITY_ATOM_ATTR
1 1
charge 1
@<TRIPOS>BOND
     1    17    18    1
     2    18    16    1
     3    16     3    1
     4     3     4    1
     5     3     1    1
     6     4     8   ar
     7     4     5   ar
     8     5     6   ar
     9     6     7   ar
    10     7     8   ar
    11     8     9    1
    12     9    10    1
    13    10    15   ar
    14    10    11   ar
    15    11    12   ar
    16    12    13   ar
    17    13    14   ar
    18    14    15   ar
    19    19    20    1
    20    19     1    1
    21    20    24   ar
    22    20    21   ar
    23    21    22   ar
    24    22    23   ar
    25    23    24   ar
    26    25    26    1
    27    25     1    1
    28    26    35   ar
    29    26    27   ar
    30    27    28   ar
    31    28    33   ar
    32    28    29   ar
    33    29    30   ar
    34    30    31   ar
    35    30    38    1
    36    31    32   ar
    37    32    33   ar
    38    32    37    1
    39    33    34   ar
    40    34    35   ar
    41    35    36    2
    42    34    39    1
    43     1     2    1
@<TRIPOS>MOLECULE
ZINC13498854
 38 41 0 0 0
SMALL
GASTEIGER

@<TRIPOS>ATOM
      1 N          23.9635   39.0712   28.3509 N.4     1  UNL1        0.2841
      2 H          23.8470   39.6077   29.2106 H       1  UNL1        0.2077
      3 C          25.3985   38.8138   28.1705 C.3     1  UNL1        0.1166
      4 N          27.3109   40.4949   28.3168 N.ar    1  UNL1       -0.2160
      5 C          26.1922   39.9272   28.8042 C.ar    1  UNL1        0.2101
      6 N          25.9286   40.5286   29.9386 N.ar    1  UNL1       -0.1069
      7 N          26.8335   41.4247   30.1334 N.ar    1  UNL1       -0.0228
      8 N          27.6705   41.4071   29.1553 N.ar    1  UNL1       -0.0431
      9 C          27.9895   40.1466   27.0659 C.3     1  UNL1        0.0897
     10 C          28.9410   38.9739   27.3113 C.3     1  UNL1        0.0245
     11 C          28.7856   41.3530   26.5645 C.3     1  UNL1        0.0245
     12 C          26.7754   40.8916   25.0132 C.3     1  UNL1        0.0020
     13 C          26.9504   39.7490   26.0156 C.3     1  UNL1        0.0226
     14 C          25.7655   37.4847   28.8334 C.3     1  UNL1        0.0573
     15 C          26.4221   36.5646   27.8022 C.3     1  UNL1        0.0064
     16 C          26.7417   37.7406   29.9834 C.3     1  UNL1        0.0064
     17 C          23.4291   39.8732   27.2422 C.3     1  UNL1        0.1334
     18 C          23.3297   41.3154   27.6679 C.ar    1  UNL1        0.0327
     19 C          24.2637   42.2330   27.2244 C.ar    1  UNL1        0.0014
     20 C          24.1694   43.5570   27.6106 C.ar    1  UNL1       -0.0001
     21 C          23.1475   43.9612   28.4493 C.ar    1  UNL1       -0.0000
     22 C          22.2168   43.0425   28.8974 C.ar    1  UNL1       -0.0001
     23 C          22.3079   41.7197   28.5065 C.ar    1  UNL1        0.0014
     24 C          23.2177   37.8142   28.4986 C.3     1  UNL1        0.1382
     25 C          21.9398   38.0742   29.2540 C.ar    1  UNL1        0.0885
     26 C          21.9863   38.6389   30.4859 C.ar    1  UNL1        0.0076
     27 C          20.7267   38.8824   31.1915 C.ar    1  UNL1        0.0154
     28 C          20.7106   39.4675   32.4620 C.ar    1  UNL1       -0.0031
     29 C          19.5189   39.6765   33.0961 C.ar    1  UNL1       -0.0257
     30 C          18.3233   39.3143   32.4904 C.ar    1  UNL1       -0.0244
     31 C          18.3152   38.7370   31.2391 C.ar    1  UNL1        0.0125
     32 C          19.5167   38.5140   30.5743 C.ar    1  UNL1        0.0585
     33 N          19.5381   37.9385   29.3216 N.ar    1  UNL1       -0.3211
     34 C          20.6995   37.7235   28.6791 C.ar    1  UNL1        0.2591
     35 O          20.6806   37.2127   27.5727 O.2     1  UNL1       -0.2673
     36 C          17.0205   39.5545   33.2091 C.3     1  UNL1        0.0307
     37 C          19.5018   40.3063   34.4651 C.3     1  UNL1        0.0307
     38 H          18.6908   37.6813   28.8914 H       1  UNL1        0.1689
@<TRIPOS>UNITY_ATOM_ATTR
1 1
charge 1
@<TRIPOS>BOND
     1    12    13    1
     2    13     9    1
     3     9    10    1
     4     9    11    1
     5     9     4    1
     6     4     8   ar
     7     4     5   ar
     8     5     6   ar
     9     5     3    1
    10     6     7   ar
    11     7     8   ar
    12     3    14    1
    13     3     1    1
    14    14    15    1
    15    14    16    1
    16     1    17    1
    17     1    24    1
    18    17    18    1
    19    18    23   ar
    20    18    19   ar
    21    19    20   ar
    22    20    21   ar
    23    21    22   ar
    24    22    23   ar
    25    24    25    1
    26    25    34   ar
    27    25    26   ar
    28    26    27   ar
    29    27    32   ar
    30    27    28   ar
    31    28    29   ar
    32    29    30   ar
    33    29    37    1
    34    30    31   ar
    35    30    36    1
    36    31    32   ar
    37    32    33   ar
    38    33    34   ar
    39    34    35    2
    40     1     2    1
    41    33    38    1
@<TRIPOS>MOLECULE
ZINC19972980
 40 44 0 0 0
SMALL
GASTEIGER

@<TRIPOS>ATOM
      1 C          25.6987   39.2037   28.0447 C.3     1  UNL1        0.1441
      2 C          26.1973   35.1293   32.6746 C.ar    1  UNL1       -0.0221
      3 C          26.5554   34.0428   31.8879 C.ar    1  UNL1       -0.0028
      4 C          26.6755   34.1731   30.5214 C.ar    1  UNL1        0.0167
      5 C          26.4359   35.4053   29.9218 C.ar    1  UNL1        0.0588
      6 C          26.0730   36.5045   30.7226 C.ar    1  UNL1        0.0154
      7 C          25.9572   36.3487   32.1079 C.ar    1  UNL1       -0.0028
      8 C          25.8223   37.7970   30.0822 C.ar    1  UNL1        0.0078
      9 C          25.9495   37.8879   28.7353 C.ar    1  UNL1        0.0901
     10 C          26.3156   36.7548   27.9777 C.ar    1  UNL1        0.2594
     11 O          26.4244   36.8586   26.7681 O.2     1  UNL1       -0.2673
     12 N          26.5478   35.5638   28.5570 N.ar    1  UNL1       -0.3211
     13 H          26.8014   34.7939   27.9983 H       1  UNL1        0.1689
     14 C          27.3256   34.2729   34.7100 C.3     1  UNL1        0.0050
     15 C          26.0720   34.9617   34.1670 C.3     1  UNL1        0.0264
     16 C          26.5365   40.2774   28.6900 C.ar    1  UNL1        0.2148
     17 N          26.2945   40.8808   29.8280 N.ar    1  UNL1       -0.1065
     18 N          27.2390   41.7321   30.0359 N.ar    1  UNL1       -0.0228
     19 N          28.0774   41.6873   29.0599 N.ar    1  UNL1       -0.0431
     20 N          27.6819   40.7986   28.2123 N.ar    1  UNL1       -0.2157
     21 C          28.3517   40.4288   26.9629 C.3     1  UNL1        0.0898
     22 C          29.0996   39.1083   27.1567 C.3     1  UNL1        0.0245
     23 C          27.3097   40.2670   25.8542 C.3     1  UNL1        0.0245
     24 C          29.3451   41.5251   26.5731 C.3     1  UNL1        0.0245
     25 N          24.2772   39.5552   28.1621 N.4     1  UNL1        0.2845
     26 H          24.1180   39.9054   29.1068 H       1  UNL1        0.2077
     27 C          23.9192   40.6228   27.2186 C.3     1  UNL1        0.1110
     28 C          23.2220   41.7570   27.9724 C.3     1  UNL1        0.0873
     29 C          24.1588   42.9314   28.0914 C.ar    1  UNL1       -0.0163
     30 C          25.1570   43.1172   27.1534 C.ar    1  UNL1       -0.0041
     31 C          26.0129   44.1975   27.2596 C.ar    1  UNL1       -0.0003
     32 C          25.8775   45.0860   28.3100 C.ar    1  UNL1       -0.0000
     33 C          24.8827   44.8971   29.2511 C.ar    1  UNL1       -0.0003
     34 C          24.0233   43.8199   29.1418 C.ar    1  UNL1       -0.0041
     35 C          23.4252   38.3743   27.9688 C.3     1  UNL1        0.1399
     36 C          22.1618   38.5290   28.7757 C.ar    1  UNL1        0.0622
     37 C          21.9732   38.3596   30.1073 C.ar    1  UNL1        0.0084
     38 C          20.7119   38.5588   30.6364 C.ar    1  UNL1        0.0074
     39 C          19.7008   38.9175   29.8081 C.ar    1  UNL1        0.0353
     40 S          20.5267   38.9904   28.2270 S.2     1  UNL1       -0.0850
@<TRIPOS>UNITY_ATOM_ATTR
25 1
charge 1
@<TRIPOS>BOND
     1    14    15    1
     2    15     2    1
     3     2     7   ar
     4     2     3   ar
     5     3     4   ar
     6     4     5   ar
     7     5    12   ar
     8     5     6   ar
     9     6     7   ar
    10     6     8   ar
    11     8     9   ar
    12     9    10   ar
    13     9     1    1
    14    10    11    2
    15    10    12   ar
    16     1    16    1
    17     1    25    1
    18    16    20   ar
    19    16    17   ar
    20    17    18   ar
    21    18    19   ar
    22    19    20   ar
    23    20    21    1
    24    21    22    1
    25    21    23    1
    26    21    24    1
    27    25    27    1
    28    25    35    1
    29    27    28    1
    30    28    29    1
    31    29    34   ar
    32    29    30   ar
    33    30    31   ar
    34    31    32   ar
    35    32    33   ar
    36    33    34   ar
    37    35    36    1
    38    36    40   ar
    39    36    37   ar
    40    37    38   ar
    41    38    39   ar
    42    39    40   ar
    43    12    13    1
    44    25    26    1
@<TRIPOS>MOLECULE
ZINC13063743
 39 43 0 0 0
SMALL
GASTEIGER

@<TRIPOS>ATOM
      1 N          21.2176   52.2631   24.5025 N.4     1  UNL1        0.2841
      2 H          20.3192   51.9313   24.1515 H       1  UNL1        0.2077
      3 C          22.1471   51.1181   24.6005 C.3     1  UNL1        0.1382
      4 C          23.8744   48.2879   19.3762 C.ar    1  UNL1       -0.0221
      5 C          22.6313   47.7493   19.0725 C.ar    1  UNL1       -0.0028
      6 C          21.5487   47.9706   19.8961 C.ar    1  UNL1        0.0167
      7 C          21.7011   48.7407   21.0446 C.ar    1  UNL1        0.0588
      8 C          22.9629   49.2851   21.3490 C.ar    1  UNL1        0.0154
      9 C          24.0476   49.0476   20.4982 C.ar    1  UNL1       -0.0028
     10 C          23.1133   50.0943   22.5599 C.ar    1  UNL1        0.0076
     11 C          22.0267   50.2903   23.3470 C.ar    1  UNL1        0.0885
     12 C          20.7847   49.7170   22.9995 C.ar    1  UNL1        0.2591
     13 O          19.8218   49.9015   23.7236 O.2     1  UNL1       -0.2673
     14 N          20.6357   48.9770   21.8868 N.ar    1  UNL1       -0.3211
     15 H          19.7530   48.5984   21.6705 H       1  UNL1        0.1689
     16 C          25.7948   49.3426   18.2148 C.3     1  UNL1        0.0050
     17 C          25.0431   48.0326   18.4595 C.3     1  UNL1        0.0264
     18 C          21.0181   52.8674   25.8365 C.3     1  UNL1        0.1334
     19 C          20.6288   51.7813   26.8059 C.ar    1  UNL1        0.0328
     20 C          21.5615   51.2841   27.6970 C.ar    1  UNL1        0.0037
     21 C          21.2043   50.2914   28.5898 C.ar    1  UNL1        0.0295
     22 C          19.9147   49.7876   28.5844 C.ar    1  UNL1        0.1401
     23 C          18.9828   50.2826   27.6878 C.ar    1  UNL1        0.0295
     24 C          19.3409   51.2788   26.7996 C.ar    1  UNL1        0.0037
     25 F          19.5657   48.8139   29.4534 F       1  UNL1       -0.2042
     26 C          21.7560   53.2722   23.5662 C.3     1  UNL1        0.1168
     27 C          20.6587   53.8143   22.6871 C.ar    1  UNL1        0.2106
     28 N          19.6860   54.6133   23.0523 N.ar    1  UNL1       -0.1069
     29 N          18.9555   54.8498   22.0177 N.ar    1  UNL1       -0.0228
     30 N          19.4369   54.2224   21.0019 N.ar    1  UNL1       -0.0426
     31 N          20.4905   53.5767   21.3729 N.ar    1  UNL1       -0.2044
     32 C          21.3417   52.7392   20.5242 C.3     1  UNL1        0.1947
     33 C          20.4796   51.8086   19.7108 C.ar    1  UNL1        0.1477
     34 C          20.6953   51.4531   18.4315 C.ar    1  UNL1        0.0382
     35 C          19.6517   50.5704   18.0701 C.ar    1  UNL1        0.0435
     36 C          18.8562   50.4457   19.1475 C.ar    1  UNL1        0.1792
     37 O          19.3625   51.1978   20.1383 O.2     1  UNL1       -0.4527
     38 C          22.3711   54.4145   24.3772 C.3     1  UNL1        0.0632
     39 C          23.8528   54.5523   24.0215 C.3     1  UNL1        0.0066
@<TRIPOS>UNITY_ATOM_ATTR
1 1
charge 1
@<TRIPOS>BOND
     1    16    17    1
     2    17     4    1
     3     4     9   ar
     4     4     5   ar
     5     5     6   ar
     6     6     7   ar
     7     7    14   ar
     8     7     8   ar
     9     8     9   ar
    10     8    10   ar
    11    10    11   ar
    12    11    12   ar
    13    11     3    1
    14    12    13    2
    15    12    14   ar
    16     3     1    1
    17    18    19    1
    18    18     1    1
    19    19    24   ar
    20    19    20   ar
    21    20    21   ar
    22    21    22   ar
    23    22    23   ar
    24    22    25    1
    25    23    24   ar
    26    26    38    1
    27    26    27    1
    28    26     1    1
    29    38    39    1
    30    27    31   ar
    31    27    28   ar
    32    28    29   ar
    33    29    30   ar
    34    30    31   ar
    35    31    32    1
    36    32    33    1
    37    33    37   ar
    38    33    34   ar
    39    34    35   ar
    40    35    36   ar
    41    36    37   ar
    42    14    15    1
    43     1     2    1
@<TRIPOS>MOLECULE
ZINC13064730
 39 43 0 0 0
SMALL
GASTEIGER

@<TRIPOS>ATOM
      1 N          23.8536   38.9514   28.6871 N.4     1  UNL1        0.2845
      2 H          23.6215   39.5367   29.4895 H       1  UNL1        0.2077
      3 C          25.2662   38.5291   28.7933 C.3     1  UNL1        0.1169
      4 C          26.1660   39.7288   28.9432 C.ar    1  UNL1        0.2102
      5 N          26.2027   40.5575   29.9580 N.ar    1  UNL1       -0.1069
      6 N          27.1019   41.4470   29.7128 N.ar    1  UNL1       -0.0228
      7 N          27.6341   41.2119   28.5645 N.ar    1  UNL1       -0.0430
      8 N          27.0837   40.1606   28.0584 N.ar    1  UNL1       -0.2119
      9 C          27.3988   39.5509   26.7640 C.3     1  UNL1        0.1354
     10 C          28.4957   38.5004   26.9487 C.3     1  UNL1        0.0528
     11 C          27.9617   37.1441   26.5662 C.ar    1  UNL1       -0.0202
     12 C          28.6504   36.0022   26.9303 C.ar    1  UNL1       -0.0042
     13 C          28.1578   34.7579   26.5839 C.ar    1  UNL1       -0.0003
     14 C          26.9821   34.6559   25.8640 C.ar    1  UNL1       -0.0000
     15 C          26.2964   35.7980   25.4949 C.ar    1  UNL1       -0.0003
     16 C          26.7861   37.0421   25.8462 C.ar    1  UNL1       -0.0042
     17 C          26.1112   36.3219   29.6034 C.3     1  UNL1        0.0066
     18 C          25.4179   37.6219   30.0159 C.3     1  UNL1        0.0632
     19 C          23.6518   39.7327   27.4488 C.3     1  UNL1        0.1399
     20 C          23.3440   41.1601   27.8218 C.ar    1  UNL1        0.0622
     21 C          22.2831   41.6536   28.5061 C.ar    1  UNL1        0.0084
     22 C          22.2081   43.0147   28.7356 C.ar    1  UNL1        0.0074
     23 C          23.1974   43.8154   28.2697 C.ar    1  UNL1        0.0353
     24 S          24.2858   42.6385   27.4840 S.2     1  UNL1       -0.0850
     25 C          22.9708   37.7661   28.6861 C.3     1  UNL1        0.1382
     26 C          21.7448   38.0804   29.5042 C.ar    1  UNL1        0.0885
     27 C          21.8757   38.6703   30.7181 C.ar    1  UNL1        0.0076
     28 C          20.6653   38.9572   31.4903 C.ar    1  UNL1        0.0154
     29 C          20.7378   39.5480   32.7561 C.ar    1  UNL1       -0.0031
     30 C          19.5899   39.8024   33.4515 C.ar    1  UNL1       -0.0257
     31 C          18.3516   39.4801   32.9128 C.ar    1  UNL1       -0.0244
     32 C          18.2562   38.8973   31.6677 C.ar    1  UNL1        0.0125
     33 C          19.4120   38.6237   30.9433 C.ar    1  UNL1        0.0585
     34 N          19.3465   38.0362   29.6979 N.ar    1  UNL1       -0.3211
     35 C          20.4639   37.7710   28.9987 C.ar    1  UNL1        0.2591
     36 O          20.3683   37.2501   27.9009 O.2     1  UNL1       -0.2673
     37 C          17.0986   39.7700   33.6983 C.3     1  UNL1        0.0307
     38 C          19.6683   40.4390   34.8152 C.3     1  UNL1        0.0307
     39 H          18.4688   37.8075   29.3149 H       1  UNL1        0.1689
@<TRIPOS>UNITY_ATOM_ATTR
1 1
charge 1
@<TRIPOS>BOND
     1    17    18    1
     2    18     3    1
     3     3     4    1
     4     3     1    1
     5     4     8   ar
     6     4     5   ar
     7     5     6   ar
     8     6     7   ar
     9     7     8   ar
    10     8     9    1
    11     9    10    1
    12    10    11    1
    13    11    16   ar
    14    11    12   ar
    15    12    13   ar
    16    13    14   ar
    17    14    15   ar
    18    15    16   ar
    19    19    20    1
    20    19     1    1
    21    20    24   ar
    22    20    21   ar
    23    21    22   ar
    24    22    23   ar
    25    23    24   ar
    26    25    26    1
    27    25     1    1
    28    26    35   ar
    29    26    27   ar
    30    27    28   ar
    31    28    33   ar
    32    28    29   ar
    33    29    30   ar
    34    30    31   ar
    35    30    38    1
    36    31    32   ar
    37    31    37    1
    38    32    33   ar
    39    33    34   ar
    40    34    35   ar
    41    35    36    2
    42    34    39    1
    43     1     2    1
@<TRIPOS>MOLECULE
ZINC13063729
 41 45 0 0 0
SMALL
GASTEIGER

@<TRIPOS>ATOM
      1 N          23.8559   39.1068   28.3900 N.4     1  UNL1        0.2841
      2 H          24.7393   39.5534   28.6358 H       1  UNL1        0.2077
      3 C          24.0902   38.1555   27.2833 C.3     1  UNL1        0.1382
      4 C          24.6962   41.1351   21.8944 C.ar    1  UNL1       -0.0221
      5 C          26.0647   41.3489   21.9877 C.ar    1  UNL1       -0.0028
      6 C          26.7733   40.9030   23.0823 C.ar    1  UNL1        0.0167
      7 C          26.1120   40.2321   24.1061 C.ar    1  UNL1        0.0588
      8 C          24.7245   40.0172   24.0077 C.ar    1  UNL1        0.0154
      9 C          24.0259   40.4784   22.8870 C.ar    1  UNL1       -0.0028
     10 C          24.0374   39.3101   25.0902 C.ar    1  UNL1        0.0076
     11 C          24.7664   38.8864   26.1522 C.ar    1  UNL1        0.0885
     12 C          26.1551   39.1325   26.2047 C.ar    1  UNL1        0.2591
     13 O          26.7907   38.7476   27.1708 O.2     1  UNL1       -0.2673
     14 N          26.7956   39.7763   25.2131 N.ar    1  UNL1       -0.3211
     15 H          27.7667   39.9243   25.2785 H       1  UNL1        0.1689
     16 C          22.4456   41.6641   20.9976 C.3     1  UNL1        0.0050
     17 C          23.9434   41.6314   20.6869 C.3     1  UNL1        0.0264
     18 C          22.8937   40.1462   27.9673 C.3     1  UNL1        0.1334
     19 C          23.4501   41.4977   28.3350 C.ar    1  UNL1        0.0326
     20 C          24.8146   41.6681   28.4768 C.ar    1  UNL1        0.0011
     21 C          25.3252   42.9088   28.8098 C.ar    1  UNL1       -0.0044
     22 C          24.4707   43.9768   29.0104 C.ar    1  UNL1       -0.0219
     23 C          23.1059   43.8050   28.8734 C.ar    1  UNL1       -0.0044
     24 C          22.5956   42.5654   28.5361 C.ar    1  UNL1        0.0011
     25 C          25.0269   45.3281   29.3781 C.3     1  UNL1        0.0310
     26 C          23.3360   38.3881   29.5723 C.3     1  UNL1        0.1168
     27 C          21.9524   37.8560   29.3012 C.ar    1  UNL1        0.2102
     28 N          21.6229   36.9475   28.4157 N.ar    1  UNL1       -0.1069
     29 N          20.3496   36.7649   28.4878 N.ar    1  UNL1       -0.0228
     30 N          19.8582   37.5333   29.3963 N.ar    1  UNL1       -0.0430
     31 N          20.8149   38.2218   29.9209 N.ar    1  UNL1       -0.2119
     32 C          20.6872   39.2155   30.9897 C.3     1  UNL1        0.1354
     33 C          19.4937   38.8584   31.8780 C.3     1  UNL1        0.0528
     34 C          19.5399   39.6845   33.1376 C.ar    1  UNL1       -0.0202
     35 C          20.6227   39.5836   33.9910 C.ar    1  UNL1       -0.0042
     36 C          20.6676   40.3453   35.1437 C.ar    1  UNL1       -0.0003
     37 C          19.6246   41.1998   35.4484 C.ar    1  UNL1       -0.0000
     38 C          18.5392   41.2966   34.5978 C.ar    1  UNL1       -0.0003
     39 C          18.4970   40.5391   33.4423 C.ar    1  UNL1       -0.0042
     40 C          24.2754   37.2246   29.8960 C.3     1  UNL1        0.0632
     41 C          24.3410   37.0288   31.4121 C.3     1  UNL1        0.0066
@<TRIPOS>UNITY_ATOM_ATTR
1 1
charge 1
@<TRIPOS>BOND
     1    16    17    1
     2    17     4    1
     3     4     9   ar
     4     4     5   ar
     5     5     6   ar
     6     6     7   ar
     7     7    14   ar
     8     7     8   ar
     9     8     9   ar
    10     8    10   ar
    11    10    11   ar
    12    11    12   ar
    13    11     3    1
    14    12    13    2
    15    12    14   ar
    16     3     1    1
    17    18    19    1
    18    18     1    1
    19    19    24   ar
    20    19    20   ar
    21    20    21   ar
    22    21    22   ar
    23    22    23   ar
    24    22    25    1
    25    23    24   ar
    26    26    40    1
    27    26    27    1
    28    26     1    1
    29    40    41    1
    30    27    31   ar
    31    27    28   ar
    32    28    29   ar
    33    29    30   ar
    34    30    31   ar
    35    31    32    1
    36    32    33    1
    37    33    34    1
    38    34    39   ar
    39    34    35   ar
    40    35    36   ar
    41    36    37   ar
    42    37    38   ar
    43    38    39   ar
    44    14    15    1
    45     1     2    1
@<TRIPOS>MOLECULE
ZINC08833291
 33 35 0 0 0
SMALL
GASTEIGER

@<TRIPOS>ATOM
      1 N          11.6542   38.0955   26.5968 N.am    1  UNL1       -0.2955
      2 C          12.4204   37.2240   27.2821 C.2     1  UNL1        0.2487
      3 O          12.5249   36.0729   26.8989 O.2     1  UNL1       -0.2698
      4 H          11.5697   39.0261   26.9067 H       1  UNL1        0.1538
      5 C          11.0036   37.6931   25.4872 C.2     1  UNL1       -0.0332
      6 S           9.5593   36.7841   25.6241 S.2     1  UNL1       -0.0617
      7 N          11.4900   38.0063   24.2699 N.am    1  UNL1       -0.6065
      8 C          10.1922   41.5387   22.8557 C.ar    1  UNL1        0.1182
      9 C          10.9577   40.7635   21.9944 C.ar    1  UNL1        0.0700
     10 N          11.3898   39.6111   22.4341 N.ar    1  UNL1       -0.2669
     11 C          11.1128   39.1871   23.6577 C.ar    1  UNL1       -0.0067
     12 S          10.1580   40.4873   24.3005 S.2     1  UNL1       -0.0852
     13 C          11.2797   41.2356   20.6000 C.3     1  UNL1        0.0528
     14 C           9.6016   42.8112   22.6468 C.2     1  UNL1        0.3485
     15 O          10.0111   43.5333   21.7573 O.2     1  UNL1       -0.2443
     16 O           8.5856   43.2210   23.4346 O.3     1  UNL1       -0.4451
     17 C           6.2101   43.5685   23.1572 C.3     1  UNL1        0.0513
     18 C           7.6149   44.0872   22.8434 C.3     1  UNL1        0.2089
     19 C          13.1025   37.6459   28.4456 C.2     1  UNL1        0.0611
     20 C          14.4393   37.8851   28.4003 C.2     1  UNL1        0.0422
     21 C          15.1215   38.3070   29.5637 C.ar    1  UNL1        0.1455
     22 C          14.5321   38.7606   30.7292 C.ar    1  UNL1        0.0406
     23 C          15.5692   39.0664   31.6139 C.ar    1  UNL1        0.0406
     24 C          16.7494   38.7980   30.9583 C.ar    1  UNL1        0.1454
     25 O          16.4606   38.3422   29.7265 O.2     1  UNL1       -0.4535
     26 C          18.1047   38.9797   31.5141 C.ar    1  UNL1        0.0362
     27 C          18.2705   39.4565   32.8165 C.ar    1  UNL1        0.0145
     28 C          19.5407   39.6205   33.3318 C.ar    1  UNL1        0.0586
     29 C          20.6491   39.3220   32.5573 C.ar    1  UNL1        0.0228
     30 C          20.4917   38.8535   31.2638 C.ar    1  UNL1        0.0586
     31 C          19.2270   38.6809   30.7380 C.ar    1  UNL1        0.0145
     32 CL         21.8879   38.4828   30.3010 Cl      1  UNL1       -0.0822
     33 CL         19.7489   40.2078   34.9521 Cl      1  UNL1       -0.0822
@<TRIPOS>UNITY_ATOM_ATTR
7 1
charge -1
@<TRIPOS>BOND
     1    17    18    1
     2    18    16    1
     3    16    14    1
     4    14    15    2
     5    14     8    1
     6     8    12   ar
     7     8     9   ar
     8     9    10   ar
     9     9    13    1
    10    10    11   ar
    11    11    12   ar
    12    11     7    1
    13     7     5    1
    14     5     6    2
    15     5     1    1
    16     1     2   am
    17     2     3    2
    18     2    19    1
    19    19    20    2
    20    20    21    1
    21    21    25   ar
    22    21    22   ar
    23    22    23   ar
    24    23    24   ar
    25    24    25   ar
    26    24    26    1
    27    26    31   ar
    28    26    27   ar
    29    27    28   ar
    30    28    29   ar
    31    28    33    1
    32    29    30   ar
    33    30    31   ar
    34    30    32    1
    35     1     4    1
@<TRIPOS>MOLECULE
ZINC13063924
 40 44 0 0 0
SMALL
GASTEIGER

@<TRIPOS>ATOM
      1 N          24.0115   38.8657   28.5103 N.4     1  UNL1        0.2841
      2 H          23.3235   39.5112   28.1224 H       1  UNL1        0.2077
      3 C          23.3870   38.1032   29.6118 C.3     1  UNL1        0.1168
      4 C          22.0114   37.6538   29.1913 C.ar    1  UNL1        0.2105
      5 N          21.7085   36.5433   28.5643 N.ar    1  UNL1       -0.1069
      6 N          20.4327   36.5222   28.3860 N.ar    1  UNL1       -0.0228
      7 N          19.9148   37.5942   28.8759 N.ar    1  UNL1       -0.0427
      8 N          20.8560   38.3174   29.3816 N.ar    1  UNL1       -0.2077
      9 C          20.6970   39.6171   30.0387 C.3     1  UNL1        0.1571
     10 C          20.2914   39.4076   31.4749 C.ar    1  UNL1        0.0024
     11 C          21.2415   39.4710   32.4771 C.ar    1  UNL1       -0.0000
     12 C          20.8699   39.2839   33.7951 C.ar    1  UNL1        0.0294
     13 C          19.5473   39.0224   34.1104 C.ar    1  UNL1        0.1401
     14 C          18.5975   38.9541   33.1052 C.ar    1  UNL1        0.0294
     15 C          18.9706   39.1467   31.7885 C.ar    1  UNL1       -0.0000
     16 F          19.1837   38.8347   35.3978 F       1  UNL1       -0.2042
     17 C          24.5167   36.7954   31.4162 C.3     1  UNL1        0.0066
     18 C          24.2543   36.8788   29.9111 C.3     1  UNL1        0.0632
     19 C          25.1621   39.6403   29.0210 C.3     1  UNL1        0.1334
     20 C          24.8880   41.1078   28.8157 C.ar    1  UNL1        0.0326
     21 C          23.6653   41.5198   28.3193 C.ar    1  UNL1        0.0011
     22 C          23.4124   42.8662   28.1352 C.ar    1  UNL1       -0.0044
     23 C          24.3854   43.8001   28.4382 C.ar    1  UNL1       -0.0219
     24 C          25.6098   43.3879   28.9299 C.ar    1  UNL1       -0.0044
     25 C          25.8613   42.0417   29.1182 C.ar    1  UNL1        0.0011
     26 C          24.1114   45.2677   28.2329 C.3     1  UNL1        0.0310
     27 C          24.4569   37.9421   27.4458 C.3     1  UNL1        0.1382
     28 C          24.3523   38.6461   26.1174 C.ar    1  UNL1        0.0885
     29 C          25.3848   39.4032   25.6710 C.ar    1  UNL1        0.0076
     30 C          25.2517   40.0740   24.3764 C.ar    1  UNL1        0.0157
     31 C          26.2830   40.8677   23.8634 C.ar    1  UNL1        0.0011
     32 C          26.1277   41.4799   22.6522 C.ar    1  UNL1       -0.0042
     33 C          24.9553   41.3215   21.9256 C.ar    1  UNL1       -0.0204
     34 C          23.9264   40.5439   22.4113 C.ar    1  UNL1        0.0128
     35 C          24.0616   39.9109   23.6427 C.ar    1  UNL1        0.0585
     36 N          23.0487   39.1268   24.1525 N.ar    1  UNL1       -0.3211
     37 C          23.1823   38.5104   25.3399 C.ar    1  UNL1        0.2591
     38 O          22.2680   37.8210   25.7577 O.2     1  UNL1       -0.2673
     39 C          24.8064   42.0066   20.5916 C.3     1  UNL1        0.0311
     40 H          22.2156   39.0167   23.6396 H       1  UNL1        0.1689
@<TRIPOS>UNITY_ATOM_ATTR
1 1
charge 1
@<TRIPOS>BOND
     1    17    18    1
     2    18     3    1
     3     3     4    1
     4     3     1    1
     5     4     8   ar
     6     4     5   ar
     7     5     6   ar
     8     6     7   ar
     9     7     8   ar
    10     8     9    1
    11     9    10    1
    12    10    15   ar
    13    10    11   ar
    14    11    12   ar
    15    12    13   ar
    16    13    14   ar
    17    13    16    1
    18    14    15   ar
    19    19    20    1
    20    19     1    1
    21    20    25   ar
    22    20    21   ar
    23    21    22   ar
    24    22    23   ar
    25    23    24   ar
    26    23    26    1
    27    24    25   ar
    28    27    28    1
    29    27     1    1
    30    28    37   ar
    31    28    29   ar
    32    29    30   ar
    33    30    35   ar
    34    30    31   ar
    35    31    32   ar
    36    32    33   ar
    37    33    34   ar
    38    33    39    1
    39    34    35   ar
    40    35    36   ar
    41    36    37   ar
    42    37    38    2
    43    36    40    1
    44     1     2    1
@<TRIPOS>MOLECULE
ZINC13494291
 39 43 0 0 0
SMALL
GASTEIGER

@<TRIPOS>ATOM
      1 N          21.7740   38.4519   29.4362 N.4     1  UNL1        0.2855
      2 H          21.9487   39.1882   30.1201 H       1  UNL1        0.2076
      3 C          22.8439   37.4535   29.5646 C.3     1  UNL1        0.1109
      4 C          23.8914   37.9538   30.5614 C.3     1  UNL1        0.0872
      5 C          26.7898   33.9117   30.0082 C.3     1  UNL1        0.0310
      6 C          26.0041   34.8428   30.8952 C.ar    1  UNL1       -0.0222
      7 C          25.9499   34.6176   32.2582 C.ar    1  UNL1       -0.0043
      8 C          25.2341   35.4748   33.0724 C.ar    1  UNL1       -0.0006
      9 C          24.5677   36.5546   32.5233 C.ar    1  UNL1       -0.0041
     10 C          24.6176   36.7768   31.1600 C.ar    1  UNL1       -0.0166
     11 C          25.3333   35.9191   30.3455 C.ar    1  UNL1       -0.0083
     12 C          20.4631   37.8600   29.7348 C.3     1  UNL1        0.1381
     13 C          19.8349   38.5894   30.8943 C.ar    1  UNL1        0.0885
     14 C          20.6129   39.0451   31.9070 C.ar    1  UNL1        0.0076
     15 C          19.9723   39.7536   33.0167 C.ar    1  UNL1        0.0154
     16 C          20.7229   40.2510   34.0871 C.ar    1  UNL1        0.0014
     17 C          20.0945   40.9038   35.1093 C.ar    1  UNL1       -0.0002
     18 C          18.7170   41.0774   35.0957 C.ar    1  UNL1       -0.0028
     19 C          17.9577   40.5954   34.0517 C.ar    1  UNL1       -0.0062
     20 C          18.5757   39.9277   32.9994 C.ar    1  UNL1        0.0548
     21 N          17.8405   39.4355   31.9420 N.ar    1  UNL1       -0.3214
     22 C          18.4382   38.7907   30.9249 C.ar    1  UNL1        0.2591
     23 O          17.7569   38.3689   30.0065 O.2     1  UNL1       -0.2673
     24 C          16.4633   40.7905   34.0503 C.3     1  UNL1        0.0325
     25 H          16.8637   39.5581   31.9316 H       1  UNL1        0.1689
     26 C          21.7831   39.0646   28.1011 C.3     1  UNL1        0.1741
     27 C          22.3322   40.4648   28.1948 C.ar    1  UNL1        0.2166
     28 N          21.7218   41.5132   28.6909 N.ar    1  UNL1       -0.1066
     29 N          22.5186   42.5209   28.5933 N.ar    1  UNL1       -0.0228
     30 N          23.6186   42.1442   28.0405 N.ar    1  UNL1       -0.0430
     31 N          23.5425   40.8829   27.7799 N.ar    1  UNL1       -0.2117
     32 C          24.5784   40.0604   27.1501 C.3     1  UNL1        0.1355
     33 C          25.7387   39.8645   28.1280 C.3     1  UNL1        0.0528
     34 C          26.4038   38.5392   27.8594 C.ar    1  UNL1       -0.0202
     35 C          25.8019   37.6217   27.0187 C.ar    1  UNL1       -0.0042
     36 C          26.4146   36.4080   26.7681 C.ar    1  UNL1       -0.0003
     37 C          27.6238   36.1076   27.3667 C.ar    1  UNL1       -0.0000
     38 C          28.2229   37.0229   28.2119 C.ar    1  UNL1       -0.0003
     39 C          27.6130   38.2388   28.4580 C.ar    1  UNL1       -0.0042
@<TRIPOS>UNITY_ATOM_ATTR
1 1
charge 1
@<TRIPOS>BOND
     1     5     6    1
     2     6    11   ar
     3     6     7   ar
     4     7     8   ar
     5     8     9   ar
     6     9    10   ar
     7    10    11   ar
     8    10     4    1
     9     4     3    1
    10     3     1    1
    11     1    12    1
    12     1    26    1
    13    12    13    1
    14    13    22   ar
    15    13    14   ar
    16    14    15   ar
    17    15    20   ar
    18    15    16   ar
    19    16    17   ar
    20    17    18   ar
    21    18    19   ar
    22    19    20   ar
    23    19    24    1
    24    20    21   ar
    25    21    22   ar
    26    22    23    2
    27    26    27    1
    28    27    31   ar
    29    27    28   ar
    30    28    29   ar
    31    29    30   ar
    32    30    31   ar
    33    31    32    1
    34    32    33    1
    35    33    34    1
    36    34    39   ar
    37    34    35   ar
    38    35    36   ar
    39    36    37   ar
    40    37    38   ar
    41    38    39   ar
    42     1     2    1
    43    21    25    1
@<TRIPOS>MOLECULE
ZINC06197936
 42 47 0 0 0
SMALL
GASTEIGER

@<TRIPOS>ATOM
      1 C          22.6092   50.5435   21.6832 C.3     1  UNL1        0.1441
      2 C          20.0552   50.4178   27.3176 C.ar    1  UNL1       -0.0221
      3 C          21.1556   49.8847   27.9755 C.ar    1  UNL1       -0.0028
      4 C          22.3114   49.5879   27.2861 C.ar    1  UNL1        0.0167
      5 C          22.3783   49.8243   25.9168 C.ar    1  UNL1        0.0588
      6 C          21.2607   50.3644   25.2534 C.ar    1  UNL1        0.0154
      7 C          20.0979   50.6577   25.9736 C.ar    1  UNL1       -0.0028
      8 C          21.3407   50.6085   23.8120 C.ar    1  UNL1        0.0078
      9 C          22.4935   50.3040   23.1665 C.ar    1  UNL1        0.0901
     10 C          23.5858   49.7641   23.8788 C.ar    1  UNL1        0.2594
     11 O          24.6128   49.4975   23.2791 O.2     1  UNL1       -0.2673
     12 N          23.5216   49.5360   25.2023 N.ar    1  UNL1       -0.3211
     13 H          24.3022   49.1577   25.6677 H       1  UNL1        0.1689
     14 C          19.0001   50.3477   29.5606 C.3     1  UNL1        0.0050
     15 C          18.8024   50.7339   28.0933 C.3     1  UNL1        0.0264
     16 C          21.5457   49.7557   20.9625 C.ar    1  UNL1        0.2149
     17 N          20.2639   49.7393   21.2356 N.ar    1  UNL1       -0.1065
     18 N          19.6883   48.9488   20.3967 N.ar    1  UNL1       -0.0228
     19 N          20.5708   48.4543   19.6005 N.ar    1  UNL1       -0.0431
     20 N          21.7286   48.9277   19.9172 N.ar    1  UNL1       -0.2139
     21 C          23.0028   48.6210   19.2626 C.3     1  UNL1        0.1084
     22 C          22.9938   49.1515   17.8141 C.3     1  UNL1        0.0245
     23 C          23.7649   48.0738   17.0108 C.3     1  UNL1        0.0021
     24 C          23.2970   46.7535   17.6721 C.3     1  UNL1        0.0021
     25 C          23.1959   47.0971   19.1726 C.3     1  UNL1        0.0245
     26 N          22.4052   51.9814   21.4081 N.4     1  UNL1        0.2841
     27 H          21.5444   52.2867   21.8622 H       1  UNL1        0.2077
     28 C          23.5366   52.7644   21.9480 C.3     1  UNL1        0.1110
     29 C          22.9827   53.9866   22.6829 C.3     1  UNL1        0.0873
     30 C          23.0368   53.7461   24.1696 C.ar    1  UNL1       -0.0163
     31 C          21.9344   54.0252   24.9555 C.ar    1  UNL1       -0.0041
     32 C          21.9823   53.7996   26.3185 C.ar    1  UNL1       -0.0003
     33 C          23.1363   53.3051   26.8971 C.ar    1  UNL1       -0.0000
     34 C          24.2406   53.0314   26.1119 C.ar    1  UNL1       -0.0003
     35 C          24.1909   53.2518   24.7482 C.ar    1  UNL1       -0.0041
     36 C          22.2853   52.2051   19.9521 C.3     1  UNL1        0.1334
     37 C          21.1414   53.1398   19.6535 C.ar    1  UNL1        0.0327
     38 C          21.1673   53.9218   18.5139 C.ar    1  UNL1        0.0014
     39 C          20.1156   54.7753   18.2373 C.ar    1  UNL1       -0.0001
     40 C          19.0431   54.8546   19.1058 C.ar    1  UNL1       -0.0000
     41 C          19.0198   54.0767   20.2483 C.ar    1  UNL1       -0.0001
     42 C          20.0689   53.2190   20.5220 C.ar    1  UNL1        0.0014
@<TRIPOS>UNITY_ATOM_ATTR
26 1
charge 1
@<TRIPOS>BOND
     1    14    15    1
     2    15     2    1
     3     2     7   ar
     4     2     3   ar
     5     3     4   ar
     6     4     5   ar
     7     5    12   ar
     8     5     6   ar
     9     6     7   ar
    10     6     8   ar
    11     8     9   ar
    12     9    10   ar
    13     9     1    1
    14    10    11    2
    15    10    12   ar
    16     1    16    1
    17     1    26    1
    18    16    20   ar
    19    16    17   ar
    20    17    18   ar
    21    18    19   ar
    22    19    20   ar
    23    20    21    1
    24    21    25    1
    25    21    22    1
    26    22    23    1
    27    23    24    1
    28    24    25    1
    29    28    29    1
    30    28    26    1
    31    29    30    1
    32    30    35   ar
    33    30    31   ar
    34    31    32   ar
    35    32    33   ar
    36    33    34   ar
    37    34    35   ar
    38    36    37    1
    39    36    26    1
    40    37    42   ar
    41    37    38   ar
    42    38    39   ar
    43    39    40   ar
    44    40    41   ar
    45    41    42   ar
    46    12    13    1
    47    26    27    1
@<TRIPOS>MOLECULE
ZINC19972884
 40 45 0 0 0
SMALL
GASTEIGER

@<TRIPOS>ATOM
      1 C          22.4713   50.7547   21.8233 C.3     1  UNL1        0.1441
      2 C          18.9835   50.6460   28.4144 C.3     1  UNL1        0.0310
      3 C          20.2001   50.3769   27.5667 C.ar    1  UNL1       -0.0218
      4 C          21.3387   49.8365   28.1491 C.ar    1  UNL1       -0.0028
      5 C          22.4640   49.5867   27.3939 C.ar    1  UNL1        0.0167
      6 C          22.4598   49.8743   26.0328 C.ar    1  UNL1        0.0588
      7 C          21.3021   50.4180   25.4451 C.ar    1  UNL1        0.0154
      8 C          20.1712   50.6628   26.2312 C.ar    1  UNL1       -0.0028
      9 C          21.3075   50.7172   24.0119 C.ar    1  UNL1        0.0078
     10 C          22.4324   50.4584   23.3004 C.ar    1  UNL1        0.0901
     11 C          23.5672   49.9130   23.9382 C.ar    1  UNL1        0.2594
     12 O          24.5680   49.6879   23.2800 O.2     1  UNL1       -0.2673
     13 N          23.5716   49.6349   25.2537 N.ar    1  UNL1       -0.3211
     14 H          24.3806   49.2548   25.6666 H       1  UNL1        0.1689
     15 C          21.4011   49.9579   21.1229 C.ar    1  UNL1        0.2149
     16 N          20.1051   50.0934   21.2652 N.ar    1  UNL1       -0.1065
     17 N          19.5286   49.2329   20.4989 N.ar    1  UNL1       -0.0228
     18 N          20.4231   48.5521   19.8713 N.ar    1  UNL1       -0.0431
     19 N          21.5902   48.9731   20.2251 N.ar    1  UNL1       -0.2139
     20 C          22.8793   48.4710   19.7429 C.3     1  UNL1        0.1084
     21 C          23.3436   49.2929   18.5227 C.3     1  UNL1        0.0245
     22 C          24.0171   48.2488   17.5965 C.3     1  UNL1        0.0021
     23 C          23.1122   47.0036   17.7691 C.3     1  UNL1        0.0021
     24 C          22.7327   47.0160   19.2642 C.3     1  UNL1        0.0245
     25 N          22.2363   52.1883   21.6052 N.4     1  UNL1        0.2845
     26 H          21.3508   52.4318   22.0490 H       1  UNL1        0.2077
     27 C          23.2919   52.9960   22.2308 C.3     1  UNL1        0.1110
     28 C          22.6635   53.9758   23.2238 C.3     1  UNL1        0.0873
     29 C          23.1400   53.6540   24.6168 C.ar    1  UNL1       -0.0163
     30 C          22.2882   53.8165   25.6934 C.ar    1  UNL1       -0.0041
     31 C          22.7237   53.5164   26.9706 C.ar    1  UNL1       -0.0003
     32 C          24.0142   53.0640   27.1724 C.ar    1  UNL1       -0.0000
     33 C          24.8678   52.9070   26.0964 C.ar    1  UNL1       -0.0003
     34 C          24.4306   53.2017   24.8186 C.ar    1  UNL1       -0.0041
     35 C          22.1214   52.4908   20.1723 C.3     1  UNL1        0.1399
     36 C          20.8723   53.2978   19.9279 C.ar    1  UNL1        0.0622
     37 C          20.0207   53.8465   20.8286 C.ar    1  UNL1        0.0084
     38 C          18.9258   54.5550   20.3705 C.ar    1  UNL1        0.0074
     39 C          18.7361   54.6804   19.0342 C.ar    1  UNL1        0.0353
     40 S          20.1345   53.7859   18.3772 S.2     1  UNL1       -0.0850
@<TRIPOS>UNITY_ATOM_ATTR
25 1
charge 1
@<TRIPOS>BOND
     1     2     3    1
     2     3     8   ar
     3     3     4   ar
     4     4     5   ar
     5     5     6   ar
     6     6    13   ar
     7     6     7   ar
     8     7     8   ar
     9     7     9   ar
    10     9    10   ar
    11    10    11   ar
    12    10     1    1
    13    11    12    2
    14    11    13   ar
    15     1    15    1
    16     1    25    1
    17    15    19   ar
    18    15    16   ar
    19    16    17   ar
    20    17    18   ar
    21    18    19   ar
    22    19    20    1
    23    20    24    1
    24    20    21    1
    25    21    22    1
    26    22    23    1
    27    23    24    1
    28    25    27    1
    29    25    35    1
    30    27    28    1
    31    28    29    1
    32    29    34   ar
    33    29    30   ar
    34    30    31   ar
    35    31    32   ar
    36    32    33   ar
    37    33    34   ar
    38    35    36    1
    39    36    40   ar
    40    36    37   ar
    41    37    38   ar
    42    38    39   ar
    43    39    40   ar
    44    13    14    1
    45    25    26    1
@<TRIPOS>MOLECULE
ZINC14713907
 27 29 0 0 0
SMALL
GASTEIGER

@<TRIPOS>ATOM
      1 C          13.6939   38.0301   29.9416 C.ar    1  UNL1        0.0124
      2 C          13.4559   38.4847   31.2401 C.ar    1  UNL1        0.0010
      3 C          12.1615   38.6960   31.6671 C.ar    1  UNL1        0.0000
      4 C          11.1002   38.4632   30.8100 C.ar    1  UNL1       -0.0003
      5 C          11.3294   38.0177   29.5205 C.ar    1  UNL1       -0.0034
      6 C          12.6192   37.8022   29.0806 C.ar    1  UNL1       -0.0097
      7 C          15.0781   37.7961   29.4790 C.2     1  UNL1        0.0824
      8 O          15.3990   36.7052   29.0493 O.2     1  UNL1       -0.3129
      9 N          15.9842   38.7922   29.5336 N.am    1  UNL1       -0.5888
     10 C          18.9070   38.6760   32.3254 C.ar    1  UNL1        0.1094
     11 N          19.1627   38.2402   31.1079 N.ar    1  UNL1       -0.1471
     12 N          18.2932   38.2507   30.1943 N.ar    1  UNL1       -0.1661
     13 C          17.0642   38.7022   30.4037 C.ar    1  UNL1        0.0175
     14 S          17.1975   39.1702   32.1269 S.2     1  UNL1       -0.0746
     15 C          19.8007   38.7455   33.5368 C.3     1  UNL1        0.0544
     16 C          20.4413   40.1325   33.6192 C.3     1  UNL1        0.0069
     17 C          20.7086   40.4845   35.0840 C.3     1  UNL1        0.0004
     18 C          18.7076   41.8806   34.5463 C.3     1  UNL1        0.0000
     19 C          19.4851   41.1922   35.6698 C.3     1  UNL1        0.0000
     20 C          12.8669   37.3161   27.6759 C.3     1  UNL1        0.0904
     21 S          11.3974   36.4512   27.0689 S.3     1  UNL1       -0.0837
     22 C          10.8737   37.5777   25.8192 C.ar    1  UNL1        0.1363
     23 N          10.7809   37.3865   24.5164 N.ar    1  UNL1       -0.2363
     24 C          10.3651   38.3480   23.7136 C.ar    1  UNL1        0.0670
     25 C          10.0378   39.5455   24.2553 C.ar    1  UNL1        0.0521
     26 S          10.3467   39.2238   25.9855 S.2     1  UNL1       -0.0601
     27 C          10.2629   38.1207   22.2273 C.3     1  UNL1        0.0527
@<TRIPOS>UNITY_ATOM_ATTR
9 1
charge -1
@<TRIPOS>BOND
     1    18    19    1
     2    19    17    1
     3    17    16    1
     4    16    15    1
     5    15    10    1
     6    10    14   ar
     7    10    11   ar
     8    11    12   ar
     9    12    13   ar
    10    13    14   ar
    11    13     9    1
    12     9     7    1
    13     7     8    2
    14     7     1    1
    15     1     6   ar
    16     1     2   ar
    17     2     3   ar
    18     3     4   ar
    19     4     5   ar
    20     5     6   ar
    21     6    20    1
    22    20    21    1
    23    21    22    1
    24    22    26   ar
    25    22    23   ar
    26    23    24   ar
    27    24    25   ar
    28    24    27    1
    29    25    26   ar
@<TRIPOS>MOLECULE
ZINC08887796
 28 30 0 0 0
SMALL
GASTEIGER

@<TRIPOS>ATOM
      1 N          22.8415   39.4443   28.8026 N.pl3   1  UNL1       -0.2675
      2 N          19.6970   38.4621   30.0962 N.ar    1  UNL1       -0.1380
      3 N          20.7105   39.4236   29.9502 N.ar    1  UNL1       -0.1133
      4 C          21.6405   38.8589   29.2084 C.ar    1  UNL1        0.2597
      5 N          21.2229   37.6276   28.9109 N.ar    1  UNL1       -0.0919
      6 N          20.0757   37.4124   29.4501 N.ar    1  UNL1       -0.0432
      7 C          18.4459   38.6217   30.8415 C.3     1  UNL1        0.2599
      8 C          18.7367   39.2401   32.1846 C.2     1  UNL1        0.3441
      9 O          18.0223   40.1146   32.6144 O.2     1  UNL1       -0.2478
     10 O          19.7893   38.8194   32.9035 O.3     1  UNL1       -0.4471
     11 C          20.2262   39.5698   35.1786 C.3     1  UNL1        0.0513
     12 C          20.4902   39.8171   33.6920 C.3     1  UNL1        0.2086
     13 C          22.8988   40.2081   27.5539 C.3     1  UNL1        0.1216
     14 C          23.2052   41.6512   27.8612 C.ar    1  UNL1        0.0083
     15 C          22.4150   42.3508   28.7540 C.ar    1  UNL1       -0.0018
     16 C          22.6985   43.6732   29.0394 C.ar    1  UNL1       -0.0002
     17 C          23.7669   44.2998   28.4249 C.ar    1  UNL1        0.0008
     18 C          24.5545   43.6031   27.5283 C.ar    1  UNL1        0.0111
     19 C          24.2740   42.2777   27.2459 C.ar    1  UNL1        0.0553
     20 CL         25.2625   41.4020   26.1191 Cl      1  UNL1       -0.0825
     21 C          24.0427   39.2996   29.6286 C.3     1  UNL1        0.1216
     22 C          25.1589   38.7241   28.7956 C.ar    1  UNL1        0.0083
     23 C          24.9969   37.5004   28.1732 C.ar    1  UNL1       -0.0018
     24 C          26.0189   36.9745   27.4056 C.ar    1  UNL1       -0.0002
     25 C          27.2074   37.6674   27.2675 C.ar    1  UNL1        0.0008
     26 C          27.3725   38.8882   27.8935 C.ar    1  UNL1        0.0111
     27 C          26.3479   39.4175   28.6582 C.ar    1  UNL1        0.0553
     28 CL         26.5547   40.9510   29.4453 Cl      1  UNL1       -0.0825
@<TRIPOS>BOND
     1    11    12    1
     2    12    10    1
     3    10     8    1
     4     8     9    2
     5     8     7    1
     6     7     2    1
     7     2     6   ar
     8     2     3   ar
     9     3     4   ar
    10     4     5   ar
    11     4     1    1
    12     5     6   ar
    13     1    13    1
    14     1    21    1
    15    13    14    1
    16    14    19   ar
    17    14    15   ar
    18    15    16   ar
    19    16    17   ar
    20    17    18   ar
    21    18    19   ar
    22    19    20    1
    23    21    22    1
    24    22    27   ar
    25    22    23   ar
    26    23    24   ar
    27    24    25   ar
    28    25    26   ar
    29    26    27   ar
    30    27    28    1
@<TRIPOS>MOLECULE
ZINC04588837
 31 33 0 0 0
SMALL
GASTEIGER

@<TRIPOS>ATOM
      1 N          22.9221   50.4148   21.8964 N.am    1  UNL1       -0.2721
      2 C          24.1334   50.7204   22.4022 C.2     1  UNL1        0.2493
      3 O          25.0005   51.1658   21.6762 O.2     1  UNL1       -0.2699
      4 C          24.4074   50.5136   23.8402 C.ar    1  UNL1        0.0552
      5 C          24.5366   51.6106   24.6940 C.ar    1  UNL1        0.0046
      6 C          24.7926   51.4107   26.0347 C.ar    1  UNL1        0.0018
      7 C          24.9216   50.1265   26.5337 C.ar    1  UNL1        0.0241
      8 C          24.8000   49.0354   25.6920 C.ar    1  UNL1        0.1430
      9 C          24.5385   49.2212   24.3500 C.ar    1  UNL1        0.0286
     10 N          24.9453   47.6655   26.2333 N.pl3   1  UNL1        0.0577
     11 O          24.1065   47.2198   26.9957 O.2     1  UNL1       -0.1261
     12 O          25.9038   46.9840   25.9165 O.2     1  UNL1       -0.1261
     13 C          22.7561   50.2334   20.4521 C.3     1  UNL1        0.0760
     14 C          21.5265   51.0110   19.9784 C.3     1  UNL1        0.0215
     15 C          22.5696   48.7466   20.1429 C.3     1  UNL1        0.0182
     16 C          21.6761   48.5901   18.9107 C.3     1  UNL1        0.0017
     17 C          23.9325   48.1077   19.8690 C.3     1  UNL1        0.0017
     18 C          21.7715   50.2642   22.7906 C.3     1  UNL1        0.1374
     19 N          20.3076   51.8676   24.1415 N.ar    1  UNL1       -0.3238
     20 C          20.2133   53.2137   24.3369 C.ar    1  UNL1        0.0760
     21 C          21.1608   53.8155   23.5896 C.ar    1  UNL1        0.0199
     22 C          21.8698   52.8035   22.9126 C.ar    1  UNL1        0.0160
     23 C          21.3285   51.6219   23.2719 C.ar    1  UNL1        0.0576
     24 C          19.4552   50.8527   24.7658 C.3     1  UNL1        0.1325
     25 C          18.6151   50.6439   29.6949 C.3     1  UNL1        0.0310
     26 C          19.5447   50.4739   28.5210 C.ar    1  UNL1       -0.0221
     27 C          20.8486   50.0620   28.7256 C.ar    1  UNL1       -0.0043
     28 C          21.7010   49.9057   27.6490 C.ar    1  UNL1       -0.0006
     29 C          21.2488   50.1576   26.3670 C.ar    1  UNL1       -0.0024
     30 C          19.9468   50.5740   26.1628 C.ar    1  UNL1        0.0001
     31 C          19.0938   50.7295   27.2397 C.ar    1  UNL1       -0.0066
@<TRIPOS>BOND
     1    25    26    1
     2    26    31   ar
     3    26    27   ar
     4    27    28   ar
     5    28    29   ar
     6    29    30   ar
     7    30    31   ar
     8    30    24    1
     9    24    19    1
    10    19    23   ar
    11    19    20   ar
    12    20    21   ar
    13    21    22   ar
    14    22    23   ar
    15    23    18    1
    16    18     1    1
    17     1    13    1
    18     1     2   am
    19    13    14    1
    20    13    15    1
    21    15    16    1
    22    15    17    1
    23     2     3    2
    24     2     4    1
    25     4     9   ar
    26     4     5   ar
    27     5     6   ar
    28     6     7   ar
    29     7     8   ar
    30     8     9   ar
    31     8    10    1
    32    10    11    2
    33    10    12    2
@<TRIPOS>MOLECULE
ZINC04494250
 31 33 0 0 0
SMALL
GASTEIGER

@<TRIPOS>ATOM
      1 C          20.8705   37.1734   28.6947 C.2     1  UNL1        0.3513
      2 O          20.2423   36.4412   27.9543 O.2     1  UNL1       -0.2441
      3 C          22.2987   38.3442   27.0573 C.2     1  UNL1        0.0180
      4 C          22.1741   37.6998   28.2734 C.2     1  UNL1        0.1438
      5 C          26.8149   38.2519   24.7968 C.3     1  UNL1        0.0500
      6 C          25.5931   38.6717   25.5728 C.ar    1  UNL1        0.0372
      7 C          24.5135   37.9050   25.7981 C.ar    1  UNL1        0.0139
      8 C          23.5803   38.7241   26.5844 C.ar    1  UNL1        0.0136
      9 C          24.2108   39.9441   26.7683 C.ar    1  UNL1        0.0372
     10 N          25.4101   39.8904   26.1607 N.ar    1  UNL1       -0.3314
     11 C          23.6511   41.1251   27.5186 C.3     1  UNL1        0.0500
     12 C          26.3805   40.9875   26.1289 C.3     1  UNL1        0.1374
     13 C          26.0671   41.9115   24.9504 C.3     1  UNL1        0.1666
     14 O          26.0574   43.2684   25.3984 O.3     1  UNL1       -0.3490
     15 C          26.4879   43.4371   26.7505 C.3     1  UNL1        0.1742
     16 C          23.3169   37.5456   29.1224 C.1     1  UNL1        0.1070
     17 N          24.2235   37.4233   29.7959 N.1     1  UNL1       -0.1906
     18 O          20.3692   37.5016   29.9029 O.3     1  UNL1       -0.4407
     19 C          19.6450   38.7564   29.9973 C.3     1  UNL1        0.2300
     20 C          20.6062   39.9202   29.7474 C.3     1  UNL1        0.0560
     21 C          19.0444   38.8875   31.3733 C.2     1  UNL1        0.2128
     22 O          19.7639   38.9106   32.3491 O.2     1  UNL1       -0.2875
     23 C          17.5849   38.9875   31.5328 C.ar    1  UNL1        0.0380
     24 C          17.0398   39.5147   32.7080 C.ar    1  UNL1        0.0026
     25 C          15.6726   39.6089   32.8451 C.ar    1  UNL1       -0.0045
     26 C          14.8327   39.1742   31.8303 C.ar    1  UNL1       -0.0261
     27 C          15.3648   38.6463   30.6665 C.ar    1  UNL1       -0.0260
     28 C          16.7347   38.5510   30.5138 C.ar    1  UNL1       -0.0016
     29 C          14.2460   38.2506   29.7264 C.3     1  UNL1        0.0264
     30 C          12.9812   38.1852   30.6083 C.3     1  UNL1        0.0093
     31 C          13.3206   39.1682   31.7485 C.3     1  UNL1        0.0264
@<TRIPOS>BOND
     1     5     6    1
     2     6    10   ar
     3     6     7   ar
     4     7     8   ar
     5     8     9   ar
     6     8     3    1
     7     9    10   ar
     8     9    11    1
     9    10    12    1
    10    12    13    1
    11    13    14    1
    12    14    15    1
    13     3     4    2
    14     4    16    1
    15     4     1    1
    16    16    17    3
    17     1     2    2
    18     1    18    1
    19    18    19    1
    20    19    20    1
    21    19    21    1
    22    21    22    2
    23    21    23    1
    24    23    28   ar
    25    23    24   ar
    26    24    25   ar
    27    25    26   ar
    28    26    31    1
    29    26    27   ar
    30    27    28   ar
    31    27    29    1
    32    29    30    1
    33    30    31    1
@<TRIPOS>MOLECULE
ZINC10983392
 30 32 0 0 0
SMALL
GASTEIGER

@<TRIPOS>ATOM
      1 O          23.1270   38.9033   26.2521 O.3     1  UNL1       -0.4350
      2 C          24.3760   38.3980   26.1698 C.2     1  UNL1        0.3420
      3 O          25.0680   38.6412   25.1985 O.2     1  UNL1       -0.2449
      4 C          24.7082   37.9583   28.5050 C.2     1  UNL1        0.0441
      5 C          24.8804   37.5865   27.2117 C.2     1  UNL1        0.0850
      6 C          27.2814   34.4195   30.8389 C.3     1  UNL1        0.0727
      7 C          26.3513   35.5788   30.5903 C.ar    1  UNL1        0.1295
      8 C          25.6238   36.2501   31.5509 C.ar    1  UNL1        0.1089
      9 C          24.8941   37.2571   30.8714 C.ar    1  UNL1        0.0467
     10 C          25.2137   37.1449   29.5492 C.ar    1  UNL1        0.1453
     11 O          26.0865   36.1271   29.4014 O.2     1  UNL1       -0.4575
     12 C          25.6079   35.9739   32.9983 C.2     1  UNL1        0.3441
     13 O          24.7340   35.2765   33.4743 O.2     1  UNL1       -0.2448
     14 O          26.5625   36.4948   33.7941 O.3     1  UNL1       -0.4413
     15 C          27.4410   35.5571   34.4703 C.3     1  UNL1        0.2560
     16 C          22.0445   37.9959   26.0359 C.3     1  UNL1        0.2957
     17 C          21.3243   37.7538   27.3373 C.ar    1  UNL1        0.2812
     18 N          21.2206   38.5937   28.3369 N.ar    1  UNL1       -0.1876
     19 C          20.4965   37.9488   29.2794 C.ar    1  UNL1        0.2034
     20 N          20.1993   36.7698   28.7982 N.ar    1  UNL1       -0.0559
     21 O          20.6668   36.6435   27.6863 O.2     1  UNL1       -0.3331
     22 C          20.1066   38.4818   30.6087 C.ar    1  UNL1        0.0391
     23 C          18.7707   38.4654   31.0041 C.ar    1  UNL1        0.0028
     24 C          18.4138   38.9619   32.2414 C.ar    1  UNL1       -0.0042
     25 C          19.3795   39.4751   33.0883 C.ar    1  UNL1       -0.0225
     26 C          20.7065   39.4987   32.6986 C.ar    1  UNL1       -0.0042
     27 C          21.0753   39.0000   31.4656 C.ar    1  UNL1        0.0028
     28 C          18.9837   40.0163   34.4379 C.3     1  UNL1        0.0224
     29 C          18.6788   41.5109   34.3186 C.3     1  UNL1        0.0047
     30 C          20.1314   39.8074   35.4278 C.3     1  UNL1        0.0047
@<TRIPOS>BOND
     1     6     7    1
     2     7    11   ar
     3     7     8   ar
     4     8     9   ar
     5     8    12    1
     6     9    10   ar
     7    10    11   ar
     8    10     4    1
     9     4     5    2
    10     5     2    1
    11     2     3    2
    12     2     1    1
    13     1    16    1
    14    16    17    1
    15    17    21   ar
    16    17    18   ar
    17    18    19   ar
    18    19    20   ar
    19    19    22    1
    20    20    21   ar
    21    22    27   ar
    22    22    23   ar
    23    23    24   ar
    24    24    25   ar
    25    25    26   ar
    26    25    28    1
    27    26    27   ar
    28    28    29    1
    29    28    30    1
    30    12    13    2
    31    12    14    1
    32    14    15    1
@<TRIPOS>MOLECULE
ZINC27268966
 27 30 0 0 0
SMALL
GASTEIGER

@<TRIPOS>ATOM
      1 O          19.7567   39.0306   32.4479 O.3     1  UNL1       -0.4454
      2 C          19.8153   38.6788   31.1450 C.2     1  UNL1        0.3415
      3 O          18.8905   38.0711   30.6361 O.2     1  UNL1       -0.2449
      4 C          20.9439   39.0141   30.3764 C.2     1  UNL1        0.0834
      5 C          20.8019   39.7709   29.2508 C.2     1  UNL1        0.0266
      6 C          21.9317   40.1112   28.4851 C.ar    1  UNL1        0.0945
      7 C          22.6841   39.2546   27.6969 C.ar    1  UNL1        0.1564
      8 N          23.6597   39.9627   27.1393 N.ar    1  UNL1       -0.2090
      9 C          23.5769   41.2100   27.5303 C.ar    1  UNL1        0.1803
     10 N          22.5186   41.3855   28.3771 N.ar    1  UNL1       -0.2823
     11 C          22.3114   42.6531   28.8671 C.ar    1  UNL1        0.0890
     12 C          23.1168   43.6585   28.5221 C.ar    1  UNL1        0.0573
     13 S          24.2739   42.8435   27.4326 S.2     1  UNL1       -0.0479
     14 CL         22.3995   37.5565   27.4752 Cl      1  UNL1       -0.0597
     15 C          20.0107   40.4014   32.7619 C.3     1  UNL1        0.2093
     16 C          18.9658   40.8973   33.7634 C.3     1  UNL1        0.0572
     17 C          17.9467   39.7874   34.0288 C.3     1  UNL1        0.0919
     18 C          14.9078   39.8213   32.1077 C.ar    1  UNL1        0.2093
     19 N          15.8553   39.1375   32.7916 N.ar    1  UNL1       -0.1903
     20 C          16.7049   40.0400   33.2132 C.ar    1  UNL1        0.2367
     21 O          16.2619   41.2281   32.7897 O.2     1  UNL1       -0.3370
     22 N          15.2375   41.0887   32.1556 N.ar    1  UNL1       -0.0555
     23 C          11.4605   38.8092   30.9204 C.ar    1  UNL1        0.0076
     24 C          12.3967   39.4599   31.6913 C.ar    1  UNL1        0.0102
     25 C          13.7253   39.2469   31.4339 C.ar    1  UNL1        0.0685
     26 S          13.6557   38.0883   30.0773 S.2     1  UNL1       -0.0832
     27 C          11.8799   37.9698   29.9377 C.ar    1  UNL1        0.0355
@<TRIPOS>BOND
     1    23    27   ar
     2    23    24   ar
     3    24    25   ar
     4    25    26   ar
     5    25    18    1
     6    26    27   ar
     7    18    22   ar
     8    18    19   ar
     9    19    20   ar
    10    20    21   ar
    11    20    17    1
    12    21    22   ar
    13    17    16    1
    14    16    15    1
    15    15     1    1
    16     1     2    1
    17     2     3    2
    18     2     4    1
    19     4     5    2
    20     5     6    1
    21     6    10   ar
    22     6     7   ar
    23     7     8   ar
    24     7    14    1
    25     8     9   ar
    26     9    13   ar
    27     9    10   ar
    28    10    11   ar
    29    11    12   ar
    30    12    13   ar
@<TRIPOS>MOLECULE
ZINC29022087
 27 29 0 0 0
SMALL
GASTEIGER

@<TRIPOS>ATOM
      1 C          13.1892   37.5851   27.8461 C.ar    1  UNL1        0.1634
      2 C          12.0544   37.4629   28.6083 C.ar    1  UNL1        0.0624
      3 S          10.8192   37.8612   27.4566 S.2     1  UNL1       -0.0664
      4 C          11.8419   38.1544   26.0872 C.ar    1  UNL1        0.1324
      5 N          13.0387   37.9436   26.5697 N.ar    1  UNL1       -0.2324
      6 C          14.5222   37.3361   28.4165 C.2     1  UNL1        0.3601
      7 O          14.9169   36.1957   28.5635 O.2     1  UNL1       -0.2432
      8 O          15.3057   38.3721   28.7763 O.3     1  UNL1       -0.4358
      9 C          15.3148   38.7346   30.1824 C.3     1  UNL1        0.2775
     10 C          16.7374   38.7972   30.6758 C.2     1  UNL1        0.2229
     11 O          17.6185   38.2297   30.0622 O.2     1  UNL1       -0.2869
     12 C          18.0960   40.6824   34.0091 C.ar    1  UNL1        0.0074
     13 C          16.7820   40.9055   33.7343 C.ar    1  UNL1        0.0028
     14 C          16.2191   40.3178   32.6322 C.ar    1  UNL1        0.0096
     15 C          17.0459   39.5157   31.8519 C.ar    1  UNL1        0.0676
     16 S          18.5996   39.6377   32.7205 S.2     1  UNL1       -0.0883
     17 C          20.3017   40.5691   35.1367 C.3     1  UNL1        0.0056
     18 C          18.9167   41.2191   35.1534 C.3     1  UNL1        0.0330
     19 C          11.4490   38.5577   24.6894 C.3     1  UNL1        0.2574
     20 O          12.3939   39.5025   24.1828 O.3     1  UNL1       -0.4684
     21 C          11.8981   40.5540   23.4785 C.ar    1  UNL1        0.1392
     22 C          10.5942   40.9779   23.6890 C.ar    1  UNL1        0.0378
     23 C          10.0936   42.0497   22.9755 C.ar    1  UNL1        0.0145
     24 C          10.8886   42.6937   22.0439 C.ar    1  UNL1        0.0579
     25 C          12.1878   42.2689   21.8288 C.ar    1  UNL1        0.0145
     26 C          12.6936   41.2008   22.5440 C.ar    1  UNL1        0.0378
     27 CL         10.2553   44.0365   21.1442 Cl      1  UNL1       -0.0822
@<TRIPOS>BOND
     1    17    18    1
     2    18    12    1
     3    12    16   ar
     4    12    13   ar
     5    13    14   ar
     6    14    15   ar
     7    15    16   ar
     8    15    10    1
     9    10    11    2
    10    10     9    1
    11     9     8    1
    12     8     6    1
    13     6     7    2
    14     6     1    1
    15     1     5   ar
    16     1     2   ar
    17     2     3   ar
    18     3     4   ar
    19     4     5   ar
    20     4    19    1
    21    19    20    1
    22    20    21    1
    23    21    26   ar
    24    21    22   ar
    25    22    23   ar
    26    23    24   ar
    27    24    25   ar
    28    24    27    1
    29    25    26   ar
@<TRIPOS>MOLECULE
ZINC31068583
 31 34 0 0 0
SMALL
GASTEIGER

@<TRIPOS>ATOM
      1 C          20.8021   37.7309   29.9051 C.3     1  UNL1        0.2406
      2 O          20.1897   38.0685   28.6325 O.3     1  UNL1       -0.4439
      3 C          21.0196   38.3709   27.6158 C.2     1  UNL1        0.3188
      4 O          20.9115   37.7955   26.5522 O.2     1  UNL1       -0.2469
      5 C          25.5230   44.7639   28.8887 C.3     1  UNL1        0.0310
      6 C          24.5068   43.6688   28.6912 C.ar    1  UNL1       -0.0219
      7 C          23.1572   43.9404   28.8757 C.ar    1  UNL1       -0.0061
      8 C          22.2112   42.9551   28.7012 C.ar    1  UNL1       -0.0242
      9 C          22.6101   41.6717   28.3352 C.ar    1  UNL1       -0.1160
     10 C          23.9791   41.4029   28.1503 C.ar    1  UNL1        0.0164
     11 C          24.9209   42.4170   28.3327 C.ar    1  UNL1       -0.0029
     12 C          24.3845   40.0415   27.7636 C.ar    1  UNL1        0.1923
     13 O          25.5580   39.7596   27.5910 O.2     1  UNL1       -0.2867
     14 C          23.3639   39.0667   27.5977 C.ar    1  UNL1        0.0243
     15 C          22.0650   39.4059   27.7953 C.ar    1  UNL1       -0.0387
     16 N          21.6883   40.6681   28.1534 N.ar    1  UNL1       -0.6529
     17 C          20.5872   38.8778   30.8946 C.3     1  UNL1        0.1902
     18 O          19.2041   39.2363   30.9154 O.3     1  UNL1       -0.3435
     19 C          18.5059   38.7919   32.0804 C.3     1  UNL1        0.1599
     20 C          18.9819   39.5714   33.2791 C.ar    1  UNL1        0.0087
     21 C          18.7471   40.9315   33.3569 C.ar    1  UNL1       -0.0016
     22 C          19.1796   41.6455   34.4587 C.ar    1  UNL1       -0.0002
     23 C          19.8555   41.0013   35.4781 C.ar    1  UNL1       -0.0000
     24 C          20.0951   39.6423   35.3977 C.ar    1  UNL1       -0.0002
     25 C          19.6581   38.9273   34.2983 C.ar    1  UNL1       -0.0016
     26 C          17.0267   39.0113   31.8936 C.ar    1  UNL1        0.0087
     27 C          16.4694   38.9282   30.6313 C.ar    1  UNL1       -0.0016
     28 C          15.1118   39.1246   30.4608 C.ar    1  UNL1       -0.0002
     29 C          14.3130   39.4140   31.5512 C.ar    1  UNL1       -0.0000
     30 C          14.8711   39.5028   32.8128 C.ar    1  UNL1       -0.0002
     31 C          16.2279   39.3012   32.9840 C.ar    1  UNL1       -0.0016
@<TRIPOS>UNITY_ATOM_ATTR
16 1
charge -1
@<TRIPOS>BOND
     1     5     6    1
     2     6    11   ar
     3     6     7   ar
     4     7     8   ar
     5     8     9   ar
     6     9    16   ar
     7     9    10   ar
     8    10    11   ar
     9    10    12   ar
    10    12    13    2
    11    12    14   ar
    12    14    15   ar
    13    15    16   ar
    14    15     3    1
    15     3     4    2
    16     3     2    1
    17     2     1    1
    18     1    17    1
    19    17    18    1
    20    18    19    1
    21    19    20    1
    22    19    26    1
    23    20    25   ar
    24    20    21   ar
    25    21    22   ar
    26    22    23   ar
    27    23    24   ar
    28    24    25   ar
    29    26    31   ar
    30    26    27   ar
    31    27    28   ar
    32    28    29   ar
    33    29    30   ar
    34    30    31   ar
@<TRIPOS>MOLECULE
ZINC27778052
 28 31 0 0 0
SMALL
GASTEIGER

@<TRIPOS>ATOM
      1 C          23.4790   38.3575   29.2502 C.ar    1  UNL1        0.1746
      2 N          23.5072   37.7932   30.4405 N.ar    1  UNL1       -0.2157
      3 C          24.4380   36.8984   30.7485 C.ar    1  UNL1        0.1171
      4 C          25.4296   36.5054   29.8298 C.ar    1  UNL1        0.0766
      5 C          26.3701   35.5169   30.3289 C.ar    1  UNL1       -0.0094
      6 C          26.2373   35.0611   31.5832 C.ar    1  UNL1        0.0328
      7 S          24.8138   35.9426   32.1957 S.2     1  UNL1       -0.0676
      8 C          25.3701   37.1308   28.5446 C.ar    1  UNL1        0.2642
      9 O          26.1876   36.8526   27.6841 O.2     1  UNL1       -0.2669
     10 N          24.3997   38.0297   28.2975 N.ar    1  UNL1       -0.2714
     11 C          27.4824   35.0100   29.4475 C.3     1  UNL1        0.0231
     12 C          27.2523   33.6902   28.7084 C.3     1  UNL1        0.0047
     13 C          28.2172   33.7447   29.8946 C.3     1  UNL1        0.0047
     14 S          22.2319   39.5464   28.8813 S.3     1  UNL1       -0.0686
     15 C          20.8032   38.4527   28.6852 C.3     1  UNL1        0.1336
     16 C          21.2845   37.0106   28.5130 C.3     1  UNL1        0.0221
     17 C          19.2013   38.7997   31.8794 C.ar    1  UNL1        0.1805
     18 N          20.3166   38.8257   31.1284 N.ar    1  UNL1       -0.1942
     19 C          19.9268   38.5472   29.9077 C.ar    1  UNL1        0.2464
     20 O          18.6032   38.3688   29.9537 O.2     1  UNL1       -0.3365
     21 N          18.2085   38.5120   31.0918 N.ar    1  UNL1       -0.0606
     22 C          19.1179   39.0573   33.3619 C.3     1  UNL1        0.0692
     23 C          20.5106   39.3910   33.9006 C.3     1  UNL1        0.0081
     24 C          19.5392   41.4132   35.0003 C.3     1  UNL1        0.0000
     25 C          20.3776   40.1525   35.2209 C.3     1  UNL1        0.0005
     26 C          24.3340   38.6733   26.9831 C.3     1  UNL1        0.1374
     27 C          23.7712   37.7032   25.9765 C.2     1  UNL1       -0.0016
     28 C          22.6323   37.9623   25.3831 C.2     1  UNL1       -0.0029
@<TRIPOS>BOND
     1    24    25    1
     2    25    23    1
     3    23    22    1
     4    22    17    1
     5    17    21   ar
     6    17    18   ar
     7    18    19   ar
     8    19    20   ar
     9    19    15    1
    10    20    21   ar
    11    15    16    1
    12    15    14    1
    13    14     1    1
    14     1    10   ar
    15     1     2   ar
    16     2     3   ar
    17     3     7   ar
    18     3     4   ar
    19     4     5   ar
    20     4     8   ar
    21     5     6   ar
    22     5    11    1
    23     6     7   ar
    24    11    13    1
    25    11    12    1
    26    12    13    1
    27     8     9    2
    28     8    10   ar
    29    10    26    1
    30    26    27    1
    31    27    28    2
@<TRIPOS>MOLECULE
ZINC27079254
 26 27 0 0 0
SMALL
GASTEIGER

@<TRIPOS>ATOM
      1 C          25.3671   39.9621   17.6961 C.ar    1  UNL1        0.1826
      2 C          25.0586   41.1721   18.3167 C.ar    1  UNL1        0.1732
      3 C          24.5462   41.1803   19.5988 C.ar    1  UNL1        0.0401
      4 C          24.3475   39.9718   20.2775 C.ar    1  UNL1        0.0043
      5 C          24.6643   38.7615   19.6505 C.ar    1  UNL1        0.0147
      6 C          25.1705   38.7622   18.3680 C.ar    1  UNL1        0.0946
      7 CL         25.5625   37.2601   17.5909 Cl      1  UNL1       -0.0790
      8 C          23.8082   39.9744   21.6445 C.2     1  UNL1        0.0068
      9 C          24.6414   40.1117   22.6991 C.2     1  UNL1        0.0819
     10 C          24.1211   40.1144   24.0179 C.2     1  UNL1        0.3418
     11 O          24.4318   40.9994   24.7926 O.2     1  UNL1       -0.2449
     12 O          23.2811   39.1353   24.4137 O.3     1  UNL1       -0.4386
     13 C          23.7067   38.3176   25.5056 C.3     1  UNL1        0.2574
     14 C          22.5865   38.1927   26.5060 C.ar    1  UNL1        0.1429
     15 C          22.4953   38.9735   27.6191 C.ar    1  UNL1        0.1252
     16 S          21.0394   38.3644   28.3335 S.2     1  UNL1        0.0486
     17 N          20.6824   37.2537   27.2701 N.ar    1  UNL1       -0.1087
     18 N          21.6120   37.3157   26.3853 N.ar    1  UNL1       -0.1403
     19 CL         23.5508   40.2364   28.1709 Cl      1  UNL1       -0.0722
     20 O          25.2575   42.3445   17.6569 O.3     1  UNL1       -0.4683
     21 C          26.0723   43.3235   18.3048 C.3     1  UNL1        0.2526
     22 O          25.8666   39.9570   16.4328 O.3     1  UNL1       -0.4716
     23 C          25.1618   39.1834   15.4597 C.3     1  UNL1        0.2055
     24 C          23.8646   41.0519   14.4260 C.3     1  UNL1        0.0038
     25 C          23.7638   39.7709   15.2563 C.3     1  UNL1        0.0438
     26 C          22.8856   38.7552   14.5225 C.3     1  UNL1        0.0038
@<TRIPOS>BOND
     1    24    25    1
     2    25    26    1
     3    25    23    1
     4    23    22    1
     5    22     1    1
     6     1     6   ar
     7     1     2   ar
     8     2     3   ar
     9     2    20    1
    10     3     4   ar
    11     4     5   ar
    12     4     8    1
    13     5     6   ar
    14     6     7    1
    15     8     9    2
    16     9    10    1
    17    10    11    2
    18    10    12    1
    19    12    13    1
    20    13    14    1
    21    14    18   ar
    22    14    15   ar
    23    15    16   ar
    24    15    19    1
    25    16    17   ar
    26    17    18   ar
    27    20    21    1
@<TRIPOS>MOLECULE
ZINC20668227
 25 27 0 0 0
SMALL
GASTEIGER

@<TRIPOS>ATOM
      1 C          21.8298   39.2798   28.8145 C.ar    1  UNL1        0.1159
      2 C          23.2472   39.2773   28.9886 C.ar    1  UNL1        0.0445
      3 C          24.0913   38.2265   29.3673 C.ar    1  UNL1       -0.0056
      4 C          25.4328   38.4400   29.4761 C.ar    1  UNL1        0.1026
      5 S          25.5974   40.1640   29.0445 S.2     1  UNL1       -0.0617
      6 C          23.8853   40.5183   28.7423 C.ar    1  UNL1        0.1143
      7 N          23.2014   41.5842   28.3801 N.ar    1  UNL1       -0.2173
      8 C          21.8911   41.5213   28.2365 C.ar    1  UNL1        0.1998
      9 N          21.2271   40.3998   28.4481 N.ar    1  UNL1       -0.2172
     10 C          23.5170   36.8644   29.6598 C.3     1  UNL1        0.0319
     11 C          26.4819   37.4883   29.8536 C.2     1  UNL1        0.3470
     12 O          26.9408   36.7281   29.0228 O.2     1  UNL1       -0.2443
     13 O          26.9382   37.4559   31.1225 O.3     1  UNL1       -0.4451
     14 C          26.8090   36.1987   31.8375 C.3     1  UNL1        0.2089
     15 C          25.5047   36.1987   32.6374 C.3     1  UNL1        0.0513
     16 S          20.8954   37.8104   29.0833 S.3     1  UNL1       -0.0405
     17 C          18.3267   39.4389   32.3122 C.ar    1  UNL1        0.1599
     18 N          17.6980   38.8524   31.3106 N.ar    1  UNL1       -0.1339
     19 N          18.4199   38.3247   30.2651 N.ar    1  UNL1       -0.1336
     20 C          19.7368   38.3982   30.2736 C.ar    1  UNL1        0.1653
     21 S          20.0316   39.2600   31.8103 S.2     1  UNL1       -0.0327
     22 S          17.6617   40.1963   33.7574 S.3     1  UNL1       -0.0867
     23 C          18.8546   41.5033   34.1565 C.3     1  UNL1        0.0642
     24 C          20.5460   40.1098   35.3564 C.3     1  UNL1        0.0009
     25 C          19.4959   41.2113   35.5146 C.3     1  UNL1        0.0121
@<TRIPOS>BOND
     1    24    25    1
     2    25    23    1
     3    23    22    1
     4    22    17    1
     5    17    21   ar
     6    17    18   ar
     7    18    19   ar
     8    19    20   ar
     9    20    21   ar
    10    20    16    1
    11    16     1    1
    12     1     9   ar
    13     1     2   ar
    14     2     6   ar
    15     2     3   ar
    16     3     4   ar
    17     3    10    1
    18     4     5   ar
    19     4    11    1
    20     5     6   ar
    21     6     7   ar
    22     7     8   ar
    23     8     9   ar
    24    11    12    2
    25    11    13    1
    26    13    14    1
    27    14    15    1
@<TRIPOS>MOLECULE
ZINC21604079
 31 33 0 0 0
SMALL
GASTEIGER

@<TRIPOS>ATOM
      1 C          20.1352   38.2247   29.8278 C.ar    1  UNL1        0.2597
      2 N          20.6391   38.7658   30.9497 N.ar    1  UNL1       -0.2006
      3 C          19.6192   39.1152   31.7078 C.ar    1  UNL1        0.1656
      4 N          18.4828   38.7805   31.0346 N.ar    1  UNL1       -0.2106
      5 N          18.8216   38.2539   29.9085 N.ar    1  UNL1       -0.1374
      6 C          17.1724   38.9801   31.4862 C.ar    1  UNL1        0.0845
      7 C          16.9236   39.1667   32.8397 C.ar    1  UNL1        0.0192
      8 C          15.6305   39.3676   33.2812 C.ar    1  UNL1        0.0015
      9 C          14.5830   39.3730   32.3785 C.ar    1  UNL1        0.0001
     10 C          14.8268   39.1828   31.0306 C.ar    1  UNL1        0.0015
     11 C          16.1181   38.9862   30.5821 C.ar    1  UNL1        0.0192
     12 C          19.6942   39.7526   33.0409 C.ar    1  UNL1        0.0359
     13 C          19.3916   41.1065   33.1879 C.ar    1  UNL1        0.0030
     14 C          19.4573   41.6937   34.4348 C.ar    1  UNL1        0.0001
     15 C          19.8344   40.9456   35.5358 C.ar    1  UNL1        0.0000
     16 C          20.1413   39.6039   35.3956 C.ar    1  UNL1        0.0001
     17 C          20.0734   39.0037   34.1551 C.ar    1  UNL1        0.0030
     18 C          20.9208   37.6938   28.6948 C.2     1  UNL1        0.3797
     19 O          20.8143   36.5263   28.3760 O.2     1  UNL1       -0.2413
     20 O          21.7552   38.5042   28.0150 O.3     1  UNL1       -0.4376
     21 C          22.8544   37.8739   27.3061 C.3     1  UNL1        0.2447
     22 C          22.5471   37.8486   25.8075 C.3     1  UNL1        0.0575
     23 N          24.9331   38.3235   28.5691 N.am    1  UNL1       -0.2799
     24 C          24.1206   38.6548   27.5461 C.2     1  UNL1        0.2659
     25 O          24.4087   39.5816   26.8186 O.2     1  UNL1       -0.2710
     26 C          25.9113   36.3414   29.6158 C.3     1  UNL1        0.0215
     27 C          24.6319   37.1505   29.3935 C.3     1  UNL1        0.0755
     28 C          24.0752   37.6056   30.7439 C.3     1  UNL1        0.0215
     29 C          26.1174   39.1366   28.8568 C.3     1  UNL1        0.0755
     30 C          27.0471   39.1315   27.6416 C.3     1  UNL1        0.0215
     31 C          25.6878   40.5725   29.1641 C.3     1  UNL1        0.0215
@<TRIPOS>BOND
     1    26    27    1
     2    27    28    1
     3    27    23    1
     4    23    29    1
     5    23    24   am
     6    29    30    1
     7    29    31    1
     8    24    25    2
     9    24    21    1
    10    21    22    1
    11    21    20    1
    12    20    18    1
    13    18    19    2
    14    18     1    1
    15     1     5   ar
    16     1     2   ar
    17     2     3   ar
    18     3     4   ar
    19     3    12    1
    20     4     5   ar
    21     4     6    1
    22     6    11   ar
    23     6     7   ar
    24     7     8   ar
    25     8     9   ar
    26     9    10   ar
    27    10    11   ar
    28    12    17   ar
    29    12    13   ar
    30    13    14   ar
    31    14    15   ar
    32    15    16   ar
    33    16    17   ar
@<TRIPOS>MOLECULE
ZINC23324041
 31 33 0 0 0
SMALL
GASTEIGER

@<TRIPOS>ATOM
      1 C          22.9296   39.8284   28.5524 C.ar    1  UNL1        0.0824
      2 C          21.7000   40.4743   28.4859 C.ar    1  UNL1        0.0193
      3 C          20.6619   40.0674   29.2946 C.ar    1  UNL1        0.0061
      4 C          20.8486   39.0115   30.1899 C.ar    1  UNL1        0.0537
      5 C          22.0869   38.3684   30.2579 C.ar    1  UNL1        0.0061
      6 C          23.1191   38.7770   29.4425 C.ar    1  UNL1        0.0193
      7 C          24.5845   39.4644   26.7890 C.ar    1  UNL1        0.0619
      8 C          25.5407   40.2205   26.2018 C.ar    1  UNL1        0.0422
      9 C          25.4776   41.4801   26.8459 C.ar    1  UNL1        0.1777
     10 N          24.5142   41.4092   27.7433 N.ar    1  UNL1       -0.1588
     11 N          23.9798   40.2409   27.7266 N.ar    1  UNL1       -0.2335
     12 C          24.2482   38.0326   26.4602 C.3     1  UNL1        0.0404
     13 C          25.4879   37.3337   25.8984 C.3     1  UNL1        0.0063
     14 C          21.8152   37.5972   26.0960 C.3     1  UNL1        0.0004
     15 C          23.1275   37.9980   25.4192 C.3     1  UNL1        0.0059
     16 C          26.3263   42.6534   26.5618 C.2     1  UNL1        0.3609
     17 O          27.4831   42.4989   26.2243 O.2     1  UNL1       -0.2431
     18 O          25.8182   43.8959   26.6765 O.3     1  UNL1       -0.4444
     19 C          26.2339   44.6742   27.8297 C.3     1  UNL1        0.2089
     20 C          25.0159   45.3683   28.4426 C.3     1  UNL1        0.0513
     21 C          19.7397   38.5764   31.0630 C.2     1  UNL1        0.2493
     22 O          18.9416   37.7499   30.6657 O.2     1  UNL1       -0.2699
     23 N          19.6127   39.0956   32.3002 N.am    1  UNL1       -0.2702
     24 C          20.5258   40.1493   32.7498 C.3     1  UNL1        0.1155
     25 C          18.5613   38.6063   33.1954 C.3     1  UNL1        0.1205
     26 C          17.3735   39.5314   33.1280 C.ar    1  UNL1       -0.0023
     27 C          16.3308   39.2554   32.2633 C.ar    1  UNL1       -0.0026
     28 C          15.2388   40.1011   32.2052 C.ar    1  UNL1       -0.0003
     29 C          15.1946   41.2286   33.0037 C.ar    1  UNL1       -0.0000
     30 C          16.2399   41.5077   33.8643 C.ar    1  UNL1       -0.0003
     31 C          17.3292   40.6588   33.9265 C.ar    1  UNL1       -0.0026
@<TRIPOS>BOND
     1    14    15    1
     2    15    12    1
     3    12    13    1
     4    12     7    1
     5     7    11   ar
     6     7     8   ar
     7     8     9   ar
     8     9    10   ar
     9     9    16    1
    10    10    11   ar
    11    11     1    1
    12     1     6   ar
    13     1     2   ar
    14     2     3   ar
    15     3     4   ar
    16     4     5   ar
    17     4    21    1
    18     5     6   ar
    19    21    22    2
    20    21    23   am
    21    23    24    1
    22    23    25    1
    23    25    26    1
    24    26    31   ar
    25    26    27   ar
    26    27    28   ar
    27    28    29   ar
    28    29    30   ar
    29    30    31   ar
    30    16    17    2
    31    16    18    1
    32    18    19    1
    33    19    20    1
@<TRIPOS>MOLECULE
ZINC27533352
 26 27 0 0 0
SMALL
GASTEIGER

@<TRIPOS>ATOM
      1 N          25.3207   38.3973   27.0973 N.4     1  UNL1        0.3031
      2 C          24.8615   38.8166   25.7664 C.3     1  UNL1        0.1698
      3 H          24.7753   37.5812   27.3744 H       1  UNL1        0.2096
      4 C          26.7361   38.0049   27.0664 C.3     1  UNL1        0.2429
      5 C          27.1450   35.2841   29.4951 C.ar    1  UNL1        0.1581
      6 N          27.0143   36.4848   28.9921 N.ar    1  UNL1       -0.1507
      7 N          26.8831   36.6624   27.6339 N.ar    1  UNL1       -0.1870
      8 C          26.8923   35.5687   26.8312 C.ar    1  UNL1        0.1507
      9 S          26.7504   35.4684   25.1280 S.2     1  UNL1       -0.0231
     10 S          27.0848   34.2609   28.0329 S.2     1  UNL1       -0.0342
     11 S          27.3275   34.8012   31.1798 S.3     1  UNL1       -0.0867
     12 C          25.5961   34.4919   31.6074 C.3     1  UNL1        0.0642
     13 C          26.2323   36.1306   33.3829 C.3     1  UNL1        0.0009
     14 C          25.0853   35.6163   32.5107 C.3     1  UNL1        0.0112
     15 C          24.5486   36.7599   31.6474 C.3     1  UNL1        0.0009
     16 C          25.0888   39.4538   28.0911 C.3     1  UNL1        0.1361
     17 C          23.6065   39.6542   28.2749 C.ar    1  UNL1        0.0449
     18 C          22.7808   38.5634   28.4733 C.ar    1  UNL1        0.0263
     19 C          21.4221   38.7475   28.6472 C.ar    1  UNL1        0.1428
     20 C          20.8865   40.0217   28.6122 C.ar    1  UNL1        0.0249
     21 C          21.7100   41.1123   28.4083 C.ar    1  UNL1        0.0130
     22 C          23.0712   40.9291   28.2394 C.ar    1  UNL1        0.0593
     23 CL         24.1066   42.2989   27.9836 Cl      1  UNL1       -0.0824
     24 N          20.5392   37.5796   28.8647 N.pl3   1  UNL1        0.0577
     25 O          19.7161   37.5973   29.7624 O.2     1  UNL1       -0.1261
     26 O          20.6358   36.6010   28.1462 O.2     1  UNL1       -0.1261
@<TRIPOS>UNITY_ATOM_ATTR
1 1
charge 1
@<TRIPOS>BOND
     1    13    14    1
     2    14    15    1
     3    14    12    1
     4    12    11    1
     5    11     5    1
     6     5    10   ar
     7     5     6   ar
     8     6     7   ar
     9     7     8   ar
    10     7     4    1
    11     8     9    2
    12     8    10   ar
    13     4     1    1
    14     1     2    1
    15     1    16    1
    16    16    17    1
    17    17    22   ar
    18    17    18   ar
    19    18    19   ar
    20    19    20   ar
    21    19    24    1
    22    20    21   ar
    23    21    22   ar
    24    22    23    1
    25    24    25    2
    26    24    26    2
    27     1     3    1
@<TRIPOS>MOLECULE
ZINC14702920
 31 34 0 0 0
SMALL
GASTEIGER

@<TRIPOS>ATOM
      1 C          12.1701   37.2156   28.3306 C.3     1  UNL1        0.2769
      2 C          13.6073   37.6581   28.4297 C.2     1  UNL1        0.2170
      3 O          14.3335   37.5806   27.4619 O.2     1  UNL1       -0.2874
      4 C          14.1293   38.1845   29.7012 C.ar    1  UNL1        0.0384
      5 C          13.2460   38.5675   30.7165 C.ar    1  UNL1        0.0027
      6 C          13.7382   39.0659   31.9052 C.ar    1  UNL1       -0.0038
      7 C          15.1006   39.1780   32.1023 C.ar    1  UNL1       -0.0178
      8 C          15.9950   38.7959   31.1040 C.ar    1  UNL1       -0.0038
      9 C          15.5063   38.2970   29.8985 C.ar    1  UNL1        0.0027
     10 C          17.3850   39.0191   31.5744 C.ar    1  UNL1       -0.0039
     11 C          18.6136   38.7960   30.9499 C.ar    1  UNL1       -0.0003
     12 C          19.7868   39.0916   31.6121 C.ar    1  UNL1       -0.0000
     13 C          19.7517   39.6090   32.8947 C.ar    1  UNL1       -0.0003
     14 C          18.5379   39.8327   33.5196 C.ar    1  UNL1       -0.0039
     15 C          17.3599   39.5400   32.8647 C.ar    1  UNL1       -0.0178
     16 C          15.9138   39.6713   33.2748 C.3     1  UNL1        0.0526
     17 O          11.4656   38.0664   27.3882 O.3     1  UNL1       -0.4368
     18 C          11.0175   37.4867   26.2574 C.2     1  UNL1        0.3417
     19 O          10.7590   36.2995   26.2444 O.2     1  UNL1       -0.2449
     20 C          10.6480   40.4392   23.9672 C.ar    1  UNL1        0.1726
     21 C          10.8136   39.6886   25.1147 C.ar    1  UNL1        0.0465
     22 C          10.8409   38.2931   25.0353 C.ar    1  UNL1        0.0789
     23 C          10.7062   37.6643   23.7946 C.ar    1  UNL1        0.0098
     24 C          10.5355   38.4191   22.6547 C.ar    1  UNL1        0.0403
     25 C          10.5084   39.8051   22.7335 C.ar    1  UNL1        0.1727
     26 C           9.3414   42.4262   23.9427 C.3     1  UNL1        0.2526
     27 O          10.6206   41.7969   24.0409 O.3     1  UNL1       -0.4684
     28 O          10.3461   40.5446   21.6063 O.3     1  UNL1       -0.4676
     29 C          11.5297   40.9069   20.8921 C.3     1  UNL1        0.2319
     30 C          11.4643   42.3654   20.5187 C.2     1  UNL1        0.0207
     31 C          12.0311   43.2638   21.2853 C.2     1  UNL1       -0.0011
@<TRIPOS>BOND
     1    26    27    1
     2    27    20    1
     3    20    25   ar
     4    20    21   ar
     5    21    22   ar
     6    22    23   ar
     7    22    18    1
     8    23    24   ar
     9    24    25   ar
    10    25    28    1
    11    28    29    1
    12    29    30    1
    13    30    31    2
    14    18    19    2
    15    18    17    1
    16    17     1    1
    17     1     2    1
    18     2     3    2
    19     2     4    1
    20     4     9   ar
    21     4     5   ar
    22     5     6   ar
    23     6     7   ar
    24     7    16    1
    25     7     8   ar
    26     8     9   ar
    27     8    10    1
    28    10    15   ar
    29    10    11   ar
    30    11    12   ar
    31    12    13   ar
    32    13    14   ar
    33    14    15   ar
    34    15    16    1
@<TRIPOS>MOLECULE
ZINC28226274
 30 32 0 0 0
SMALL
GASTEIGER

@<TRIPOS>ATOM
      1 C          21.9879   37.9047   27.0565 C.3     1  UNL1        0.0578
      2 C          22.3913   37.7598   28.5253 C.3     1  UNL1        0.2468
      3 C          21.1977   38.0341   29.4035 C.ar    1  UNL1        0.2769
      4 N          21.1789   38.7802   30.4799 N.ar    1  UNL1       -0.1877
      5 C          19.9059   38.7316   30.9332 C.ar    1  UNL1        0.2034
      6 N          19.2313   37.9731   30.1090 N.ar    1  UNL1       -0.0559
      7 O          19.9581   37.5661   29.2273 O.2     1  UNL1       -0.3333
      8 C          19.3726   39.4163   32.1373 C.ar    1  UNL1        0.0391
      9 C          20.2450   40.0040   33.0512 C.ar    1  UNL1        0.0031
     10 C          19.7435   40.6447   34.1660 C.ar    1  UNL1        0.0000
     11 C          18.3781   40.6944   34.3826 C.ar    1  UNL1        0.0039
     12 C          17.5078   40.1124   33.4789 C.ar    1  UNL1        0.0715
     13 C          17.9984   39.4740   32.3575 C.ar    1  UNL1        0.0070
     14 C          16.0214   40.1757   33.7185 C.3     1  UNL1        0.4186
     15 F          15.7633   40.9713   34.8400 F       1  UNL1       -0.1659
     16 F          15.3917   40.7297   32.5988 F       1  UNL1       -0.1659
     17 F          15.5292   38.8849   33.9392 F       1  UNL1       -0.1659
     18 O          23.4468   38.7082   28.8331 O.3     1  UNL1       -0.4425
     19 C          24.6066   38.2043   29.2834 C.2     1  UNL1        0.3178
     20 O          24.7073   37.0197   29.4990 O.2     1  UNL1       -0.2501
     21 C          25.7830   39.1160   29.5199 C.3     1  UNL1        0.1177
     22 C          25.7895   40.2242   28.4649 C.3     1  UNL1        0.0808
     23 C          26.1285   41.5387   29.1193 C.2     1  UNL1        0.1736
     24 O          27.1133   41.6306   29.8207 O.2     1  UNL1       -0.2913
     25 C          25.2644   42.7108   28.9069 C.ar    1  UNL1        0.0347
     26 C          23.9212   42.5397   28.5570 C.ar    1  UNL1        0.0028
     27 C          23.1165   43.6429   28.3658 C.ar    1  UNL1        0.0001
     28 C          23.6377   44.9172   28.5078 C.ar    1  UNL1        0.0000
     29 C          24.9675   45.0949   28.8479 C.ar    1  UNL1        0.0001
     30 C          25.7835   44.0017   29.0485 C.ar    1  UNL1        0.0028
@<TRIPOS>BOND
     1     1     2    1
     2     2     3    1
     3     2    18    1
     4     3     7   ar
     5     3     4   ar
     6     4     5   ar
     7     5     6   ar
     8     5     8    1
     9     6     7   ar
    10     8    13   ar
    11     8     9   ar
    12     9    10   ar
    13    10    11   ar
    14    11    12   ar
    15    12    13   ar
    16    12    14    1
    17    14    15    1
    18    14    16    1
    19    14    17    1
    20    18    19    1
    21    19    20    2
    22    19    21    1
    23    21    22    1
    24    22    23    1
    25    23    24    2
    26    23    25    1
    27    25    30   ar
    28    25    26   ar
    29    26    27   ar
    30    27    28   ar
    31    28    29   ar
    32    29    30   ar
@<TRIPOS>MOLECULE
ZINC02062853
 29 31 0 0 0
SMALL
GASTEIGER

@<TRIPOS>ATOM
      1 C          13.2686   37.6911   28.5626 C.ar    1  UNL1        0.0758
      2 C          12.4530   37.9130   29.6724 C.ar    1  UNL1        0.0066
      3 C          13.0031   38.3382   30.8696 C.ar    1  UNL1        0.0049
      4 C          14.3706   38.5395   30.9689 C.ar    1  UNL1        0.0587
      5 C          15.1999   38.3223   29.8491 C.ar    1  UNL1        0.0589
      6 C          14.6486   37.8972   28.6528 C.ar    1  UNL1        0.0111
      7 C          16.5740   38.6331   30.2968 C.2     1  UNL1        0.2589
      8 O          17.5752   38.5610   29.6132 O.2     1  UNL1       -0.2691
      9 N          16.5305   39.0090   31.5875 N.am    1  UNL1       -0.2011
     10 C          15.2704   38.9839   32.0573 C.2     1  UNL1        0.2589
     11 O          14.9288   39.2724   33.1863 O.2     1  UNL1       -0.2691
     12 C          17.6512   39.3777   32.3439 C.ar    1  UNL1        0.0621
     13 C          18.8772   38.7674   32.1137 C.ar    1  UNL1        0.0154
     14 C          19.9802   39.1323   32.8604 C.ar    1  UNL1        0.0022
     15 C          19.8653   40.1047   33.8368 C.ar    1  UNL1        0.0115
     16 C          18.6453   40.7149   34.0689 C.ar    1  UNL1        0.0589
     17 C          17.5391   40.3575   33.3205 C.ar    1  UNL1        0.0267
     18 CL         18.5052   41.9348   35.2960 Cl      1  UNL1       -0.0822
     19 C          12.6721   37.2373   27.2875 C.2     1  UNL1        0.3411
     20 O          12.5473   36.0500   27.0640 O.2     1  UNL1       -0.2449
     21 O          12.2673   38.1407   26.3741 O.3     1  UNL1       -0.4492
     22 C          10.8604   38.1304   26.0153 C.3     1  UNL1        0.1693
     23 C          10.6925   37.5085   24.6275 C.3     1  UNL1        0.0473
     24 C          10.3276   39.5645   25.9994 C.3     1  UNL1        0.0436
     25 C          10.1607   40.0304   24.5516 C.3     1  UNL1        0.0037
     26 C          10.1001   41.5587   24.5114 C.3     1  UNL1        0.0001
     27 C          10.3132   42.0399   23.0748 C.3     1  UNL1        0.0000
     28 C          11.9409   43.2012   21.5766 C.3     1  UNL1        0.0000
     29 C          11.7863   42.3993   22.8705 C.3     1  UNL1        0.0000
@<TRIPOS>BOND
     1    28    29    1
     2    29    27    1
     3    27    26    1
     4    26    25    1
     5    25    24    1
     6    24    22    1
     7    22    23    1
     8    22    21    1
     9    21    19    1
    10    19    20    2
    11    19     1    1
    12     1     6   ar
    13     1     2   ar
    14     2     3   ar
    15     3     4   ar
    16     4    10    1
    17     4     5   ar
    18     5     6   ar
    19     5     7    1
    20     7     8    2
    21     7     9   am
    22     9    10   am
    23     9    12    1
    24    10    11    2
    25    12    17   ar
    26    12    13   ar
    27    13    14   ar
    28    14    15   ar
    29    15    16   ar
    30    16    17   ar
    31    16    18    1
@<TRIPOS>MOLECULE
ZINC11257085
 30 32 0 0 0
SMALL
GASTEIGER

@<TRIPOS>ATOM
      1 C          12.2857   37.6037   28.4772 C.2     1  UNL1        0.3415
      2 O          11.1328   37.6124   28.8605 O.2     1  UNL1       -0.2449
      3 C          13.3686   38.0211   29.3873 C.ar    1  UNL1        0.0757
      4 C          14.6945   38.0228   28.9418 C.ar    1  UNL1        0.0071
      5 C          15.6968   38.4146   29.7823 C.ar    1  UNL1        0.0085
      6 C          15.3986   38.8035   31.0932 C.ar    1  UNL1        0.0420
      7 C          14.0724   38.7962   31.5403 C.ar    1  UNL1        0.0085
      8 C          13.0701   38.4097   30.6972 C.ar    1  UNL1        0.0071
      9 C          16.4499   39.2093   31.9768 C.1     1  UNL1       -0.0597
     10 C          17.3118   39.5419   32.7012 C.1     1  UNL1       -0.0597
     11 C          18.3631   39.9478   33.5847 C.ar    1  UNL1        0.0420
     12 C          19.5368   39.1939   33.6727 C.ar    1  UNL1        0.0082
     13 C          20.5468   39.5937   34.5224 C.ar    1  UNL1        0.0006
     14 C          20.3961   40.7322   35.2945 C.ar    1  UNL1        0.0000
     15 C          19.2348   41.4808   35.2166 C.ar    1  UNL1        0.0006
     16 C          18.2182   41.0965   34.3677 C.ar    1  UNL1        0.0082
     17 O          12.5750   37.2127   27.2204 O.3     1  UNL1       -0.4404
     18 C          11.6203   36.3353   26.5667 C.3     1  UNL1        0.2354
     19 C          10.3622   38.9208   24.1203 C.ar    1  UNL1        0.1220
     20 C           9.0049   38.6578   24.1147 C.ar    1  UNL1        0.0199
     21 C           8.4948   37.6410   24.8997 C.ar    1  UNL1        0.0012
     22 C           9.3418   36.8868   25.6904 C.ar    1  UNL1       -0.0006
     23 C          10.6979   37.1532   25.7001 C.ar    1  UNL1        0.0226
     24 C          11.2090   38.1666   24.9105 C.ar    1  UNL1        0.0192
     25 S          11.0126   40.2170   23.1197 S.O2    1  UNL1        0.0634
     26 O          12.3974   40.3100   23.4248 O.2     1  UNL1       -0.1528
     27 O          10.5370   39.9892   21.8002 O.2     1  UNL1       -0.1528
     28 C          10.2432   41.9278   25.0679 C.3     1  UNL1        0.1150
     29 N          10.3185   41.6292   23.6357 N.3     1  UNL1       -0.1526
     30 C           9.7798   42.5799   22.6599 C.3     1  UNL1        0.1150
@<TRIPOS>BOND
     1    28    29    1
     2    29    30    1
     3    29    25    1
     4    25    26    2
     5    25    27    2
     6    25    19    1
     7    19    24   ar
     8    19    20   ar
     9    20    21   ar
    10    21    22   ar
    11    22    23   ar
    12    23    24   ar
    13    23    18    1
    14    18    17    1
    15    17     1    1
    16     1     2    2
    17     1     3    1
    18     3     8   ar
    19     3     4   ar
    20     4     5   ar
    21     5     6   ar
    22     6     7   ar
    23     6     9    1
    24     7     8   ar
    25     9    10    3
    26    10    11    1
    27    11    16   ar
    28    11    12   ar
    29    12    13   ar
    30    13    14   ar
    31    14    15   ar
    32    15    16   ar
@<TRIPOS>MOLECULE
ZINC26522877
 31 34 0 0 0
SMALL
GASTEIGER

@<TRIPOS>ATOM
      1 C          22.7814   39.1067   28.8958 C.3     1  UNL1        0.2540
      2 C          21.7820   37.9380   29.0075 C.3     1  UNL1        0.2540
      3 O          22.4584   36.9454   29.8068 O.3     1  UNL1       -0.3152
      4 C          23.4333   37.6920   30.5665 C.3     1  UNL1        0.2610
      5 O          23.9400   38.6780   29.6412 O.3     1  UNL1       -0.3152
      6 C          24.5435   36.7852   31.0316 C.ar    1  UNL1        0.0336
      7 C          25.4410   36.2664   30.1171 C.ar    1  UNL1        0.0006
      8 C          26.4625   35.4388   30.5444 C.ar    1  UNL1       -0.0002
      9 C          26.5797   35.1209   31.8846 C.ar    1  UNL1       -0.0000
     10 C          25.6792   35.6355   32.7983 C.ar    1  UNL1       -0.0002
     11 C          24.6611   36.4677   32.3719 C.ar    1  UNL1        0.0006
     12 C          23.1461   39.3483   27.4536 C.2     1  UNL1        0.3479
     13 O          23.1871   38.4231   26.6777 O.2     1  UNL1       -0.2473
     14 O          23.4253   40.5915   27.0311 O.3     1  UNL1       -0.4418
     15 C          24.7809   41.0689   27.2376 C.3     1  UNL1        0.2351
     16 C          24.6789   44.7593   29.3867 C.ar    1  UNL1       -0.0000
     17 C          25.8839   44.2576   28.9316 C.ar    1  UNL1       -0.0002
     18 C          25.9169   43.0634   28.2360 C.ar    1  UNL1       -0.0007
     19 C          24.7450   42.3708   27.9959 C.ar    1  UNL1        0.0213
     20 C          23.5393   42.8751   28.4464 C.ar    1  UNL1       -0.0007
     21 C          23.5067   44.0673   29.1454 C.ar    1  UNL1       -0.0002
     22 C          20.5194   38.3920   29.6937 C.2     1  UNL1        0.3479
     23 O          19.4712   38.3903   29.0927 O.2     1  UNL1       -0.2473
     24 O          20.5594   38.7984   30.9723 O.3     1  UNL1       -0.4418
     25 C          19.3103   38.7704   31.7122 C.3     1  UNL1        0.2351
     26 C          19.4602   39.5694   32.9812 C.ar    1  UNL1        0.0213
     27 C          18.4479   40.4189   33.3867 C.ar    1  UNL1       -0.0007
     28 C          18.5838   41.1488   34.5528 C.ar    1  UNL1       -0.0002
     29 C          19.7354   41.0355   35.3089 C.ar    1  UNL1       -0.0000
     30 C          20.7499   40.1900   34.9006 C.ar    1  UNL1       -0.0002
     31 C          20.6125   39.4570   33.7366 C.ar    1  UNL1       -0.0007
@<TRIPOS>BOND
     1    16    21   ar
     2    16    17   ar
     3    17    18   ar
     4    18    19   ar
     5    19    20   ar
     6    19    15    1
     7    20    21   ar
     8    15    14    1
     9    14    12    1
    10    12    13    2
    11    12     1    1
    12     1     5    1
    13     1     2    1
    14     2     3    1
    15     2    22    1
    16     3     4    1
    17     4     5    1
    18     4     6    1
    19     6    11   ar
    20     6     7   ar
    21     7     8   ar
    22     8     9   ar
    23     9    10   ar
    24    10    11   ar
    25    22    23    2
    26    22    24    1
    27    24    25    1
    28    25    26    1
    29    26    31   ar
    30    26    27   ar
    31    27    28   ar
    32    28    29   ar
    33    29    30   ar
    34    30    31   ar
@<TRIPOS>MOLECULE
ZINC22033605
 30 33 0 0 0
SMALL
GASTEIGER

@<TRIPOS>ATOM
      1 C          21.2734   39.2357   28.4376 C.2     1  UNL1        0.3413
      2 O          20.8780   38.5509   27.5155 O.2     1  UNL1       -0.2449
      3 C          22.6458   39.7821   28.4162 C.ar    1  UNL1        0.0717
      4 C          22.8853   41.0563   27.8975 C.ar    1  UNL1        0.0061
      5 C          24.1689   41.5606   27.8810 C.ar    1  UNL1        0.0002
      6 C          25.2183   40.8068   28.3768 C.ar    1  UNL1       -0.0003
      7 C          24.9873   39.5458   28.8968 C.ar    1  UNL1       -0.0041
      8 C          23.7090   39.0271   28.9147 C.ar    1  UNL1       -0.0156
      9 C          23.4600   37.6512   29.4768 C.3     1  UNL1        0.0312
     10 C          23.6890   37.6692   30.9895 C.3     1  UNL1        0.0310
     11 C          24.6509   36.5716   31.3651 C.ar    1  UNL1       -0.0218
     12 C          25.3786   35.9245   30.3838 C.ar    1  UNL1       -0.0043
     13 C          26.2610   34.9178   30.7282 C.ar    1  UNL1       -0.0003
     14 C          26.4157   34.5579   32.0540 C.ar    1  UNL1       -0.0000
     15 C          25.6884   35.2052   33.0352 C.ar    1  UNL1       -0.0003
     16 C          24.8060   36.2120   32.6907 C.ar    1  UNL1       -0.0043
     17 O          20.4607   39.4968   29.4796 O.3     1  UNL1       -0.4388
     18 C          20.0188   38.3628   30.2715 C.3     1  UNL1        0.2544
     19 C          13.8614   39.1888   31.4418 C.ar    1  UNL1        0.1110
     20 N          14.8390   39.4041   32.2687 N.ar    1  UNL1       -0.1585
     21 N          16.1645   39.1882   31.9045 N.ar    1  UNL1       -0.1705
     22 C          17.2745   39.3755   32.6776 C.ar    1  UNL1        0.2834
     23 O          17.1598   39.7755   33.8257 O.2     1  UNL1       -0.2650
     24 C          18.5397   39.1088   32.1536 C.ar    1  UNL1        0.0810
     25 C          18.6616   38.6569   30.8566 C.ar    1  UNL1        0.1097
     26 N          17.5600   38.4905   30.1291 N.ar    1  UNL1       -0.2213
     27 C          16.3763   38.7380   30.6303 C.ar    1  UNL1        0.1992
     28 S          14.7230   38.6299   29.9811 S.2     1  UNL1       -0.0321
     29 C          11.6205   38.2750   30.9005 C.3     1  UNL1        0.0073
     30 C          12.3805   39.3647   31.6592 C.3     1  UNL1        0.0545
@<TRIPOS>BOND
     1    29    30    1
     2    30    19    1
     3    19    28   ar
     4    19    20   ar
     5    20    21   ar
     6    21    27   ar
     7    21    22   ar
     8    22    23    2
     9    22    24   ar
    10    24    25   ar
    11    25    26   ar
    12    25    18    1
    13    26    27   ar
    14    27    28   ar
    15    18    17    1
    16    17     1    1
    17     1     2    2
    18     1     3    1
    19     3     8   ar
    20     3     4   ar
    21     4     5   ar
    22     5     6   ar
    23     6     7   ar
    24     7     8   ar
    25     8     9    1
    26     9    10    1
    27    10    11    1
    28    11    16   ar
    29    11    12   ar
    30    12    13   ar
    31    13    14   ar
    32    14    15   ar
    33    15    16   ar
@<TRIPOS>MOLECULE
ZINC09436612
 30 32 0 0 0
SMALL
GASTEIGER

@<TRIPOS>ATOM
      1 O          13.4914   37.3105   28.7872 O.3     1  UNL1       -0.4397
      2 C          12.9960   37.6257   27.5802 C.2     1  UNL1        0.3220
      3 O          13.7113   37.5958   26.6069 O.2     1  UNL1       -0.2497
      4 C          11.5460   38.0109   27.4380 C.3     1  UNL1        0.1391
      5 C          11.9061   42.0918   23.3881 C.3     1  UNL1        0.0307
      6 C          11.4556   40.6621   23.5429 C.ar    1  UNL1       -0.0256
      7 C          11.5561   40.0400   24.7680 C.ar    1  UNL1       -0.0017
      8 C          11.1322   38.7194   24.9064 C.ar    1  UNL1        0.0338
      9 C          10.6162   38.0240   23.7997 C.ar    1  UNL1        0.1448
     10 C          10.5232   38.6700   22.5738 C.ar    1  UNL1        0.0329
     11 C          10.9409   39.9781   22.4513 C.ar    1  UNL1       -0.0228
     12 C          10.8368   40.6723   21.1179 C.3     1  UNL1        0.0308
     13 O          10.2981   36.7830   24.2199 O.2     1  UNL1       -0.4508
     14 C          10.5812   36.6315   25.5254 C.ar    1  UNL1        0.1758
     15 C          11.0974   37.7644   26.0206 C.ar    1  UNL1        0.0295
     16 C          14.6350   38.0758   29.2507 C.3     1  UNL1        0.2766
     17 C          14.3189   38.6901   30.5901 C.2     1  UNL1        0.2171
     18 O          13.1672   38.9130   30.8984 O.2     1  UNL1       -0.2874
     19 C          15.4053   39.0188   31.5219 C.ar    1  UNL1        0.0417
     20 C          15.1101   39.5094   32.7995 C.ar    1  UNL1        0.0063
     21 C          16.1305   39.8105   33.6736 C.ar    1  UNL1        0.0403
     22 C          17.4540   39.6411   33.2868 C.ar    1  UNL1        0.1779
     23 C          17.7565   39.1586   32.0135 C.ar    1  UNL1        0.1727
     24 C          16.7398   38.8478   31.1332 C.ar    1  UNL1        0.0430
     25 O          19.0537   38.9939   31.6395 O.3     1  UNL1       -0.4684
     26 C          19.2994   38.6982   30.2632 C.3     1  UNL1        0.2526
     27 O          18.4558   39.9454   34.1509 O.3     1  UNL1       -0.4205
     28 C          18.6900   41.3310   34.4103 C.3     1  UNL1        0.5087
     29 F          18.7766   41.5388   35.7911 F       1  UNL1       -0.1550
     30 F          19.8881   41.7231   33.8037 F       1  UNL1       -0.1550
@<TRIPOS>BOND
     1     5     6    1
     2     6    11   ar
     3     6     7   ar
     4     7     8   ar
     5     8    15   ar
     6     8     9   ar
     7     9    10   ar
     8     9    13   ar
     9    10    11   ar
    10    11    12    1
    11    13    14   ar
    12    14    15   ar
    13    15     4    1
    14     4     2    1
    15     2     3    2
    16     2     1    1
    17     1    16    1
    18    16    17    1
    19    17    18    2
    20    17    19    1
    21    19    24   ar
    22    19    20   ar
    23    20    21   ar
    24    21    22   ar
    25    22    23   ar
    26    22    27    1
    27    23    24   ar
    28    23    25    1
    29    25    26    1
    30    27    28    1
    31    28    29    1
    32    28    30    1
@<TRIPOS>MOLECULE
ZINC28183230
 29 31 0 0 0
SMALL
GASTEIGER

@<TRIPOS>ATOM
      1 C          14.7085   39.1015   31.3069 C.ar    1  UNL1        0.1134
      2 N          14.9141   38.4718   30.1579 N.ar    1  UNL1       -0.2389
      3 C          13.9292   37.8846   29.5175 C.ar    1  UNL1        0.1098
      4 C          12.6744   37.9073   30.0373 C.ar    1  UNL1        0.0553
      5 S          12.9542   38.8431   31.5355 S.2     1  UNL1       -0.0661
      6 C          17.4770   41.1674   33.7855 C.ar    1  UNL1        0.1418
      7 C          16.1341   41.5251   33.7938 C.ar    1  UNL1        0.0372
      8 C          15.2347   40.8610   32.9881 C.ar    1  UNL1        0.0082
      9 C          15.6705   39.8190   32.1679 C.ar    1  UNL1        0.0579
     10 C          17.0245   39.4600   32.1602 C.ar    1  UNL1        0.1436
     11 C          17.9202   40.1368   32.9698 C.ar    1  UNL1        0.0738
     12 C          19.5298   41.1177   34.9827 C.3     1  UNL1        0.2525
     13 O          18.3588   41.8300   34.5784 O.3     1  UNL1       -0.4713
     14 O          17.4570   38.4512   31.3604 O.3     1  UNL1       -0.4713
     15 C          18.8140   38.5118   30.9162 C.3     1  UNL1        0.2525
     16 C          14.1920   37.1810   28.2109 C.3     1  UNL1        0.2547
     17 O          13.3886   37.7875   27.1645 O.3     1  UNL1       -0.4387
     18 C          12.3607   37.0613   26.6841 C.2     1  UNL1        0.3417
     19 O          12.2864   35.8749   26.9338 O.2     1  UNL1       -0.2449
     20 C          11.3238   37.7078   25.8537 C.ar    1  UNL1        0.0787
     21 C          10.0979   37.0728   25.6431 C.ar    1  UNL1        0.0066
     22 C           9.1303   37.6817   24.8711 C.ar    1  UNL1        0.0033
     23 C           9.3739   38.9153   24.2954 C.ar    1  UNL1        0.0371
     24 C          10.5912   39.5519   24.4946 C.ar    1  UNL1        0.1445
     25 C          11.5679   38.9525   25.2722 C.ar    1  UNL1        0.0435
     26 O          10.8250   40.7640   23.9260 O.3     1  UNL1       -0.4236
     27 C          10.2509   41.9038   24.5690 C.3     1  UNL1        0.5087
     28 F           8.9843   42.1544   24.0304 F       1  UNL1       -0.1550
     29 F          10.1335   41.6555   25.9407 F       1  UNL1       -0.1550
@<TRIPOS>BOND
     1    12    13    1
     2    13     6    1
     3     6    11   ar
     4     6     7   ar
     5     7     8   ar
     6     8     9   ar
     7     9    10   ar
     8     9     1    1
     9    10    11   ar
    10    10    14    1
    11    14    15    1
    12     1     5   ar
    13     1     2   ar
    14     2     3   ar
    15     3     4   ar
    16     3    16    1
    17     4     5   ar
    18    16    17    1
    19    17    18    1
    20    18    19    2
    21    18    20    1
    22    20    25   ar
    23    20    21   ar
    24    21    22   ar
    25    22    23   ar
    26    23    24   ar
    27    24    25   ar
    28    24    26    1
    29    26    27    1
    30    27    28    1
    31    27    29    1
@<TRIPOS>MOLECULE
ZINC27304707
 28 30 0 0 0
SMALL
GASTEIGER

@<TRIPOS>ATOM
      1 C          23.6712   38.3871   29.2879 C.2     1  UNL1        0.2439
      2 O          23.1406   38.0311   30.3188 O.2     1  UNL1       -0.2733
      3 N          25.0104   38.5280   29.2330 N.am    1  UNL1       -0.1549
      4 C          20.1686   38.7379   29.2848 C.3     1  UNL1        0.0000
      5 C          21.1700   39.8758   29.4924 C.3     1  UNL1        0.0005
      6 C          22.0767   39.9872   28.2650 C.3     1  UNL1        0.0091
      7 C          22.8329   38.6718   28.0684 C.3     1  UNL1        0.0783
      8 C          21.8314   37.5339   27.8608 C.3     1  UNL1        0.0091
      9 C          20.9248   37.4224   29.0882 C.3     1  UNL1        0.0005
     10 C          19.2619   38.6263   30.5122 C.3     1  UNL1        0.0000
     11 C          20.0146   39.1212   31.7489 C.3     1  UNL1        0.0000
     12 C          19.9281   39.1272   34.2459 C.3     1  UNL1        0.0000
     13 C          19.0910   39.0587   32.9670 C.3     1  UNL1        0.0000
     14 S          25.7218   39.1579   27.8766 S.O2    1  UNL1        0.0846
     15 O          27.1247   39.0105   28.0482 O.2     1  UNL1       -0.1492
     16 O          25.0288   38.6108   26.7632 O.2     1  UNL1       -0.1492
     17 C          25.3942   40.8891   27.8727 C.ar    1  UNL1        0.1550
     18 C          25.5061   41.7815   28.8869 C.ar    1  UNL1        0.0274
     19 C          25.1918   43.1068   28.6514 C.ar    1  UNL1        0.0089
     20 C          24.7810   43.4750   27.4132 C.ar    1  UNL1        0.0368
     21 S          24.8361   41.9246   26.5297 S.2     1  UNL1       -0.0665
     22 C          25.8369   38.1240   30.3732 C.3     1  UNL1        0.1451
     23 C          26.0615   36.6346   30.3280 C.ar    1  UNL1       -0.0005
     24 C          26.7278   36.0683   29.2574 C.ar    1  UNL1       -0.0026
     25 C          26.9384   34.7026   29.2185 C.ar    1  UNL1       -0.0003
     26 C          26.4732   33.9020   30.2449 C.ar    1  UNL1       -0.0000
     27 C          25.8019   34.4677   31.3127 C.ar    1  UNL1       -0.0003
     28 C          25.5962   35.8340   31.3544 C.ar    1  UNL1       -0.0026
@<TRIPOS>BOND
     1    12    13    1
     2    13    11    1
     3    11    10    1
     4    10     4    1
     5     4     9    1
     6     4     5    1
     7     5     6    1
     8     6     7    1
     9     7     8    1
    10     7     1    1
    11     8     9    1
    12     1     2    2
    13     1     3   am
    14     3    22    1
    15     3    14    1
    16    22    23    1
    17    23    28   ar
    18    23    24   ar
    19    24    25   ar
    20    25    26   ar
    21    26    27   ar
    22    27    28   ar
    23    14    15    2
    24    14    16    2
    25    14    17    1
    26    17    21   ar
    27    17    18   ar
    28    18    19   ar
    29    19    20   ar
    30    20    21   ar
@<TRIPOS>MOLECULE
ZINC07490843
 30 33 0 0 0
SMALL
GASTEIGER

@<TRIPOS>ATOM
      1 N          21.4434   38.6422   29.3412 N.am    1  UNL1       -0.2313
      2 C          20.6183   38.8150   30.3928 C.2     1  UNL1        0.2757
      3 O          21.0563   38.7607   31.5226 O.2     1  UNL1       -0.2704
      4 C          22.7958   38.4018   29.5514 C.ar    1  UNL1        0.1692
      5 N          23.3743   37.4662   30.2807 N.ar    1  UNL1       -0.2237
      6 C          24.6932   37.3814   30.3707 C.ar    1  UNL1        0.0897
      7 C          25.4706   38.2805   29.6953 C.ar    1  UNL1        0.0572
      8 S          24.2139   39.2730   28.8995 S.2     1  UNL1       -0.0506
      9 C          25.3204   36.3215   31.1970 C.ar    1  UNL1        0.0182
     10 C          26.1516   35.3725   30.6043 C.ar    1  UNL1        0.0015
     11 C          26.7368   34.3916   31.3789 C.ar    1  UNL1        0.0000
     12 C          26.4907   34.3422   32.7392 C.ar    1  UNL1        0.0000
     13 C          25.6624   35.2783   33.3321 C.ar    1  UNL1        0.0000
     14 C          25.0764   36.2671   32.5683 C.ar    1  UNL1        0.0015
     15 C          20.9145   38.7077   27.9766 C.3     1  UNL1        0.1265
     16 C          22.0430   37.6977   26.0615 C.2     1  UNL1       -0.0031
     17 C          21.4036   37.5184   27.1908 C.2     1  UNL1       -0.0043
     18 C          19.1517   39.0756   30.1649 C.3     1  UNL1        0.2930
     19 O          18.3808   38.4748   31.2388 O.3     1  UNL1       -0.4381
     20 C          17.1774   39.0100   31.4983 C.2     1  UNL1        0.3202
     21 O          16.3141   38.9937   30.6531 O.2     1  UNL1       -0.2498
     22 C          16.9031   39.6310   32.8437 C.3     1  UNL1        0.1084
     23 C          15.7290   40.6066   32.9452 C.3     1  UNL1        0.0155
     24 C          15.6213   39.2126   33.5667 C.3     1  UNL1        0.0155
     25 C          18.1182   39.9139   33.6890 C.ar    1  UNL1       -0.0128
     26 C          18.5033   41.2194   33.9305 C.ar    1  UNL1       -0.0038
     27 C          19.6148   41.4791   34.7104 C.ar    1  UNL1       -0.0003
     28 C          20.3474   40.4332   35.2397 C.ar    1  UNL1       -0.0000
     29 C          19.9655   39.1277   34.9935 C.ar    1  UNL1       -0.0003
     30 C          18.8508   38.8680   34.2184 C.ar    1  UNL1       -0.0038
@<TRIPOS>BOND
     1    16    17    2
     2    17    15    1
     3    15     1    1
     4     1     4    1
     5     1     2   am
     6     4     8   ar
     7     4     5   ar
     8     5     6   ar
     9     6     7   ar
    10     6     9    1
    11     7     8   ar
    12     9    14   ar
    13     9    10   ar
    14    10    11   ar
    15    11    12   ar
    16    12    13   ar
    17    13    14   ar
    18     2     3    2
    19     2    18    1
    20    18    19    1
    21    19    20    1
    22    20    21    2
    23    20    22    1
    24    22    24    1
    25    22    23    1
    26    22    25    1
    27    23    24    1
    28    25    30   ar
    29    25    26   ar
    30    26    27   ar
    31    27    28   ar
    32    28    29   ar
    33    29    30   ar
@<TRIPOS>MOLECULE
ZINC23871222
 28 30 0 0 0
SMALL
GASTEIGER

@<TRIPOS>ATOM
      1 C          27.1556   36.5055   28.3712 C.3     1  UNL1        0.0314
      2 C          26.0878   36.4743   29.4343 C.ar    1  UNL1       -0.0132
      3 C          26.2218   35.6809   30.5072 C.ar    1  UNL1        0.0053
      4 S          24.7373   35.9951   31.4428 S.2     1  UNL1       -0.0725
      5 C          23.9790   37.1839   30.3652 C.ar    1  UNL1        0.1168
      6 C          24.9012   37.3030   29.3083 C.ar    1  UNL1        0.0763
      7 C          24.5385   38.2128   28.2655 C.ar    1  UNL1        0.2640
      8 O          25.2732   38.3777   27.3069 O.2     1  UNL1       -0.2669
      9 N          23.3781   38.8876   28.3590 N.ar    1  UNL1       -0.2730
     10 C          22.5403   38.7115   29.4219 C.ar    1  UNL1        0.1743
     11 N          22.8470   37.8764   30.3938 N.ar    1  UNL1       -0.2158
     12 C          27.3565   34.7472   30.8421 C.3     1  UNL1        0.0379
     13 S          21.0278   39.6126   29.4951 S.3     1  UNL1       -0.0724
     14 C          19.9899   38.4140   30.3682 C.3     1  UNL1        0.0913
     15 C          19.5428   39.0002   31.6827 C.ar    1  UNL1       -0.0107
     16 C          20.4833   39.4221   32.6060 C.ar    1  UNL1       -0.0034
     17 C          20.0816   39.9613   33.8150 C.ar    1  UNL1       -0.0001
     18 C          18.7388   40.0819   34.1080 C.ar    1  UNL1        0.0064
     19 C          17.7846   39.6583   33.1811 C.ar    1  UNL1        0.0754
     20 C          18.1971   39.1201   31.9602 C.ar    1  UNL1        0.0030
     21 C          16.3451   39.7847   33.4877 C.2     1  UNL1        0.3413
     22 O          15.9740   40.5476   34.3571 O.2     1  UNL1       -0.2449
     23 O          15.4439   39.0541   32.8032 O.3     1  UNL1       -0.4413
     24 C          14.5848   39.7677   31.8753 C.3     1  UNL1        0.2560
     25 C          23.0042   39.8247   27.2968 C.3     1  UNL1        0.1429
     26 C          23.9784   41.0044   27.2912 C.3     1  UNL1        0.1668
     27 O          23.8457   41.7376   28.5105 O.3     1  UNL1       -0.3490
     28 C          22.9166   42.8210   28.4392 C.3     1  UNL1        0.1742
@<TRIPOS>BOND
     1     1     2    1
     2     2     6   ar
     3     2     3   ar
     4     3     4   ar
     5     3    12    1
     6     4     5   ar
     7     5    11   ar
     8     5     6   ar
     9     6     7   ar
    10     7     8    2
    11     7     9   ar
    12     9    10   ar
    13     9    25    1
    14    10    11   ar
    15    10    13    1
    16    13    14    1
    17    14    15    1
    18    15    20   ar
    19    15    16   ar
    20    16    17   ar
    21    17    18   ar
    22    18    19   ar
    23    19    20   ar
    24    19    21    1
    25    21    22    2
    26    21    23    1
    27    23    24    1
    28    25    26    1
    29    26    27    1
    30    27    28    1
@<TRIPOS>MOLECULE
ZINC06616128
 30 32 0 0 0
SMALL
GASTEIGER

@<TRIPOS>ATOM
      1 O          11.3379   37.1867   25.9951 O.3     1  UNL1       -0.4388
      2 C          10.4598   38.0670   25.4893 C.2     1  UNL1        0.3357
      3 O           9.3962   37.6828   25.0640 O.2     1  UNL1       -0.2482
      4 C          10.7163   39.4567   22.9436 C.2     1  UNL1        0.4052
      5 O          11.1575   38.3247   22.9318 O.2     1  UNL1       -0.2262
      6 N          10.5219   40.0922   24.1161 N.am    1  UNL1       -0.2373
      7 C           9.9979   41.4567   24.2747 C.3     1  UNL1        0.0973
      8 C           9.9255   41.7465   25.7888 C.3     1  UNL1        0.0239
      9 C           9.8789   40.3266   26.4126 C.3     1  UNL1        0.0332
     10 C          10.8006   39.5345   25.4520 C.3     1  UNL1        0.1772
     11 O          10.4215   40.0765   21.7851 O.3     1  UNL1       -0.4345
     12 C          11.5159   40.7309   21.0907 C.3     1  UNL1        0.2100
     13 C          12.2184   42.9208   22.0669 C.3     1  UNL1        0.0038
     14 C          11.2763   42.2419   21.0708 C.3     1  UNL1        0.0439
     15 C          11.5451   42.7824   19.6649 C.3     1  UNL1        0.0038
     16 C          11.5576   37.2250   27.4299 C.3     1  UNL1        0.2766
     17 C          13.0271   37.0553   27.7177 C.2     1  UNL1        0.2170
     18 O          13.7216   36.4073   26.9641 O.2     1  UNL1       -0.2874
     19 C          13.6191   37.6761   28.9135 C.ar    1  UNL1        0.0384
     20 C          12.8376   37.8932   30.0528 C.ar    1  UNL1        0.0026
     21 C          13.3996   38.4750   31.1694 C.ar    1  UNL1       -0.0042
     22 C          14.7335   38.8443   31.1644 C.ar    1  UNL1       -0.0225
     23 C          15.5122   38.6376   30.0391 C.ar    1  UNL1       -0.0042
     24 C          14.9663   38.0517   28.9167 C.ar    1  UNL1        0.0026
     25 C          15.3396   39.4805   32.3888 C.3     1  UNL1        0.0223
     26 C          15.2011   41.0013   32.2950 C.3     1  UNL1        0.0044
     27 C          15.8164   41.6471   33.5380 C.3     1  UNL1        0.0003
     28 C          17.2977   41.2744   33.6260 C.3     1  UNL1        0.0000
     29 C          17.4363   39.7536   33.7199 C.3     1  UNL1        0.0003
     30 C          16.8210   39.1078   32.4770 C.3     1  UNL1        0.0044
@<TRIPOS>BOND
     1    13    14    1
     2    14    15    1
     3    14    12    1
     4    12    11    1
     5    11     4    1
     6     4     5    2
     7     4     6   am
     8     6    10    1
     9     6     7    1
    10     7     8    1
    11     8     9    1
    12     9    10    1
    13    10     2    1
    14     2     3    2
    15     2     1    1
    16     1    16    1
    17    16    17    1
    18    17    18    2
    19    17    19    1
    20    19    24   ar
    21    19    20   ar
    22    20    21   ar
    23    21    22   ar
    24    22    23   ar
    25    22    25    1
    26    23    24   ar
    27    25    30    1
    28    25    26    1
    29    26    27    1
    30    27    28    1
    31    28    29    1
    32    29    30    1
@<TRIPOS>MOLECULE
ZINC19828290
 28 30 0 0 0
SMALL
GASTEIGER

@<TRIPOS>ATOM
      1 C          24.5097   38.0541   27.5922 C.ar    1  UNL1        0.1961
      2 N          23.3348   37.9642   27.0074 N.ar    1  UNL1       -0.1798
      3 C          22.3910   37.7520   27.9246 C.ar    1  UNL1        0.3290
      4 N          22.9460   37.7031   29.1061 N.ar    1  UNL1       -0.1235
      5 N          24.3250   37.8916   28.9196 N.ar    1  UNL1       -0.2212
      6 N          20.9452   37.5974   27.6485 N.pl3   1  UNL1        0.0965
      7 O          20.2884   38.5569   27.2855 O.2     1  UNL1       -0.1230
      8 O          20.4121   36.5107   27.7842 O.2     1  UNL1       -0.1230
      9 S          26.0517   38.3301   26.7854 S.3     1  UNL1       -0.0271
     10 C          25.8046   39.9763   26.2079 C.2     1  UNL1        0.1181
     11 S          24.8750   40.2584   24.7982 S.2     1  UNL1       -0.0275
     12 C          27.1573   42.0024   26.1603 C.3     1  UNL1        0.1134
     13 N          26.3474   41.0134   26.8760 N.am    1  UNL1       -0.2915
     14 C          26.1273   41.1517   28.3177 C.3     1  UNL1        0.1185
     15 C          25.0157   42.1391   28.5638 C.ar    1  UNL1       -0.0024
     16 C          25.2983   43.3750   29.1147 C.ar    1  UNL1       -0.0026
     17 C          24.2794   44.2824   29.3360 C.ar    1  UNL1       -0.0003
     18 C          22.9763   43.9502   29.0155 C.ar    1  UNL1       -0.0000
     19 C          22.6929   42.7122   28.4698 C.ar    1  UNL1       -0.0003
     20 C          23.7126   41.8067   28.2438 C.ar    1  UNL1       -0.0026
     21 C          25.3574   37.9104   29.9588 C.3     1  UNL1        0.1561
     22 C          25.6610   36.4989   30.3909 C.ar    1  UNL1        0.0023
     23 C          26.5161   35.7151   29.6388 C.ar    1  UNL1       -0.0000
     24 C          26.7990   34.4223   30.0366 C.ar    1  UNL1        0.0294
     25 C          26.2174   33.9084   31.1833 C.ar    1  UNL1        0.1401
     26 C          25.3570   34.6926   31.9330 C.ar    1  UNL1        0.0294
     27 C          25.0797   35.9870   31.5359 C.ar    1  UNL1       -0.0000
     28 F          26.4896   32.6431   31.5707 F       1  UNL1       -0.2042
@<TRIPOS>BOND
     1    12    13    1
     2    13    14    1
     3    13    10    1
     4    14    15    1
     5    15    20   ar
     6    15    16   ar
     7    16    17   ar
     8    17    18   ar
     9    18    19   ar
    10    19    20   ar
    11    10    11    2
    12    10     9    1
    13     9     1    1
    14     1     5   ar
    15     1     2   ar
    16     2     3   ar
    17     3     4   ar
    18     3     6    1
    19     4     5   ar
    20     5    21    1
    21    21    22    1
    22    22    27   ar
    23    22    23   ar
    24    23    24   ar
    25    24    25   ar
    26    25    26   ar
    27    25    28    1
    28    26    27   ar
    29     6     7    2
    30     6     8    2
@<TRIPOS>MOLECULE
ZINC21814575
 30 32 0 0 0
SMALL
GASTEIGER

@<TRIPOS>ATOM
      1 C          14.5789   38.2895   29.9622 C.ar    1  UNL1        0.1885
      2 N          15.2284   38.2767   28.8328 N.ar    1  UNL1       -0.1290
      3 N          14.4807   37.8062   27.8992 N.ar    1  UNL1       -0.1223
      4 C          13.3008   37.4985   28.3854 C.ar    1  UNL1        0.1936
      5 N          13.3278   37.7943   29.7180 N.ar    1  UNL1       -0.2866
      6 C          15.1083   38.7625   31.2915 C.3     1  UNL1        0.2703
      7 O          16.5367   38.7875   31.2537 O.3     1  UNL1       -0.4673
      8 C          20.5934   39.5457   33.8595 C.3     1  UNL1        0.0311
      9 C          19.1443   39.8352   33.5644 C.ar    1  UNL1       -0.0188
     10 C          18.4571   40.7649   34.3231 C.ar    1  UNL1       -0.0041
     11 C          17.1275   41.0324   34.0552 C.ar    1  UNL1        0.0028
     12 C          16.4820   40.3715   33.0278 C.ar    1  UNL1        0.0369
     13 C          17.1693   39.4388   32.2649 C.ar    1  UNL1        0.1389
     14 C          18.5021   39.1680   32.5395 C.ar    1  UNL1        0.0327
     15 C          12.2418   37.6180   30.6855 C.3     1  UNL1        0.1357
     16 C          11.3972   38.8654   30.7254 C.2     1  UNL1       -0.0017
     17 C          11.7181   39.8482   31.5297 C.2     1  UNL1       -0.0029
     18 S          11.9418   36.8240   27.4892 S.3     1  UNL1       -0.0687
     19 C          11.4968   38.2527   26.4708 C.3     1  UNL1        0.1164
     20 C          10.3379   39.0057   27.1271 C.3     1  UNL1        0.0204
     21 C          11.0791   37.7827   25.1012 C.2     1  UNL1        0.1830
     22 O          10.7569   36.6265   24.9292 O.2     1  UNL1       -0.2904
     23 C          11.0680   38.7257   23.9715 C.ar    1  UNL1        0.0352
     24 C          10.4565   38.3701   22.7648 C.ar    1  UNL1        0.0025
     25 C          10.4500   39.2593   21.7113 C.ar    1  UNL1       -0.0045
     26 C          11.0464   40.5012   21.8453 C.ar    1  UNL1       -0.0258
     27 C          11.6531   40.8607   23.0361 C.ar    1  UNL1       -0.0257
     28 C          11.6638   39.9843   24.1007 C.ar    1  UNL1       -0.0017
     29 C          12.2991   42.2154   23.1714 C.3     1  UNL1        0.0307
     30 C          11.0347   41.4671   20.6886 C.3     1  UNL1        0.0307
@<TRIPOS>BOND
     1     8     9    1
     2     9    14   ar
     3     9    10   ar
     4    10    11   ar
     5    11    12   ar
     6    12    13   ar
     7    13    14   ar
     8    13     7    1
     9     7     6    1
    10     6     1    1
    11     1     5   ar
    12     1     2   ar
    13     2     3   ar
    14     3     4   ar
    15     4     5   ar
    16     4    18    1
    17     5    15    1
    18    15    16    1
    19    16    17    2
    20    18    19    1
    21    19    20    1
    22    19    21    1
    23    21    22    2
    24    21    23    1
    25    23    28   ar
    26    23    24   ar
    27    24    25   ar
    28    25    26   ar
    29    26    27   ar
    30    26    30    1
    31    27    28   ar
    32    27    29    1
@<TRIPOS>MOLECULE
ZINC04805829
 29 31 0 0 0
SMALL
GASTEIGER

@<TRIPOS>ATOM
      1 C          14.5821   39.1806   31.1376 C.2     1  UNL1        0.2257
      2 O          13.9681   39.8527   31.9390 O.2     1  UNL1       -0.2749
      3 N          13.9348   38.2650   30.3898 N.am    1  UNL1       -0.2777
      4 C          14.6393   37.5131   29.3402 C.3     1  UNL1        0.1148
      5 C          13.8362   37.6240   28.0398 C.3     1  UNL1        0.1142
      6 N          12.4517   37.1990   28.2853 N.pl3   1  UNL1       -0.2836
      7 C          11.7865   38.0828   29.2519 C.3     1  UNL1        0.1124
      8 C          12.5055   37.9908   30.6020 C.3     1  UNL1        0.0952
      9 C          11.9227   39.0218   31.5707 C.3     1  UNL1        0.0233
     10 C          11.7371   37.1305   27.1030 C.ar    1  UNL1        0.1819
     11 N          10.8801   38.0022   26.5888 N.ar    1  UNL1       -0.2075
     12 C          10.3135   37.7237   25.4383 C.ar    1  UNL1        0.1533
     13 N          10.5976   36.5986   24.8274 N.ar    1  UNL1       -0.1914
     14 S          11.7241   35.8815   25.8986 S.2     1  UNL1        0.0491
     15 C           9.3348   38.6910   24.8241 C.3     1  UNL1        0.0928
     16 C          10.0873   39.8316   24.1885 C.ar    1  UNL1       -0.0116
     17 C          10.2372   41.0254   24.8702 C.ar    1  UNL1       -0.0036
     18 C          10.9221   42.0755   24.2876 C.ar    1  UNL1        0.0028
     19 C          11.4632   41.9326   23.0244 C.ar    1  UNL1        0.0369
     20 C          11.3188   40.7344   22.3407 C.ar    1  UNL1        0.1384
     21 C          10.6310   39.6820   22.9276 C.ar    1  UNL1        0.0331
     22 O          11.8497   40.5916   21.0978 O.3     1  UNL1       -0.4714
     23 C          11.7058   41.6942   20.2003 C.3     1  UNL1        0.2525
     24 C          16.0687   39.3693   30.9779 C.3     1  UNL1        0.0853
     25 C          16.7211   39.4700   32.3582 C.3     1  UNL1        0.0096
     26 C          18.2314   39.2650   32.2245 C.3     1  UNL1        0.0005
     27 C          18.8627   39.2021   33.6169 C.3     1  UNL1        0.0000
     28 C          20.5032   40.2789   35.1634 C.3     1  UNL1        0.0000
     29 C          19.8592   40.3519   33.7773 C.3     1  UNL1        0.0000
@<TRIPOS>BOND
     1    28    29    1
     2    29    27    1
     3    27    26    1
     4    26    25    1
     5    25    24    1
     6    24     1    1
     7     1     2    2
     8     1     3   am
     9     3     8    1
    10     3     4    1
    11     4     5    1
    12     5     6    1
    13     6     7    1
    14     6    10    1
    15     7     8    1
    16     8     9    1
    17    10    14   ar
    18    10    11   ar
    19    11    12   ar
    20    12    13   ar
    21    12    15    1
    22    13    14   ar
    23    15    16    1
    24    16    21   ar
    25    16    17   ar
    26    17    18   ar
    27    18    19   ar
    28    19    20   ar
    29    20    21   ar
    30    20    22    1
    31    22    23    1
@<TRIPOS>MOLECULE
ZINC06590955
 31 33 0 0 0
SMALL
GASTEIGER

@<TRIPOS>ATOM
      1 C          11.5793   37.9644   25.5577 C.ar    1  UNL1        0.2362
      2 N          12.8778   38.0995   25.2874 N.ar    1  UNL1       -0.1061
      3 N          13.5180   37.9681   26.3996 N.ar    1  UNL1       -0.0452
      4 N          12.6679   37.7575   27.3436 N.ar    1  UNL1       -0.1507
      5 N          11.4783   37.7579   26.8477 N.ar    1  UNL1       -0.1280
      6 C          10.4443   38.0411   24.5694 C.3     1  UNL1        0.1417
      7 C          10.7308   41.6815   22.3529 C.ar    1  UNL1       -0.0225
      8 C          10.5991   41.7184   23.7285 C.ar    1  UNL1       -0.0044
      9 C          10.5009   40.5404   24.4452 C.ar    1  UNL1        0.0013
     10 C          10.5450   39.3254   23.7874 C.ar    1  UNL1        0.0343
     11 C          10.6820   39.2885   22.4124 C.ar    1  UNL1        0.0013
     12 C          10.7749   40.4666   21.6950 C.ar    1  UNL1       -0.0044
     13 C          10.6582   42.6702   20.0799 C.3     1  UNL1        0.0047
     14 C          10.8325   42.9658   21.5710 C.3     1  UNL1        0.0224
     15 C          12.2046   43.6000   21.8081 C.3     1  UNL1        0.0047
     16 C           8.1051   38.6614   24.4920 C.3     1  UNL1        0.1680
     17 C           8.7839   36.6385   25.6362 C.3     1  UNL1        0.1680
     18 N           9.1635   38.0285   25.3068 N.4     1  UNL1        0.2895
     19 H           9.2746   38.5557   26.1729 H       1  UNL1        0.2078
     20 C          12.9994   37.5567   28.7564 C.3     1  UNL1        0.1560
     21 C          14.5199   37.5291   28.9245 C.3     1  UNL1        0.0548
     22 C          14.8975   38.2414   30.1977 C.ar    1  UNL1       -0.0169
     23 C          13.9182   38.5916   31.1085 C.ar    1  UNL1       -0.0009
     24 C          14.2601   39.2401   32.2807 C.ar    1  UNL1        0.0397
     25 C          15.5855   39.5506   32.5393 C.ar    1  UNL1        0.1724
     26 C          16.5705   39.2030   31.6200 C.ar    1  UNL1        0.1721
     27 C          16.2217   38.5482   30.4498 C.ar    1  UNL1        0.0358
     28 O          17.8727   39.5052   31.8696 O.3     1  UNL1       -0.4684
     29 C          18.8377   38.4846   31.6058 C.3     1  UNL1        0.2526
     30 O          15.9229   40.1938   33.6891 O.3     1  UNL1       -0.4684
     31 C          15.7993   41.6174   33.6963 C.3     1  UNL1        0.2526
@<TRIPOS>UNITY_ATOM_ATTR
18 1
charge 1
@<TRIPOS>BOND
     1    13    14    1
     2    14    15    1
     3    14     7    1
     4     7    12   ar
     5     7     8   ar
     6     8     9   ar
     7     9    10   ar
     8    10    11   ar
     9    10     6    1
    10    11    12   ar
    11     6     1    1
    12     6    18    1
    13     1     5   ar
    14     1     2   ar
    15     2     3   ar
    16     3     4   ar
    17     4     5   ar
    18     4    20    1
    19    20    21    1
    20    21    22    1
    21    22    27   ar
    22    22    23   ar
    23    23    24   ar
    24    24    25   ar
    25    25    26   ar
    26    25    30    1
    27    26    27   ar
    28    26    28    1
    29    28    29    1
    30    30    31    1
    31    16    18    1
    32    17    18    1
    33    18    19    1
@<TRIPOS>MOLECULE
ZINC09243386
 36 40 0 0 0
SMALL
GASTEIGER

@<TRIPOS>ATOM
      1 C          14.3368   38.7308   31.5111 C.ar    1  UNL1        0.1268
      2 N          15.3867   39.0143   32.2222 N.ar    1  UNL1       -0.2148
      3 C          16.6339   38.9364   31.7288 C.ar    1  UNL1        0.1510
      4 C          16.8182   38.5481   30.3971 C.ar    1  UNL1        0.1047
      5 C          18.2569   38.5650   30.1537 C.ar    1  UNL1        0.1714
      6 C          18.8391   38.9532   31.3081 C.ar    1  UNL1        0.1152
      7 N          17.8717   39.1801   32.2545 N.ar    1  UNL1       -0.3107
      8 C          15.6382   38.2294   29.5950 C.ar    1  UNL1        0.1544
      9 N          14.4089   38.3383   30.2086 N.ar    1  UNL1       -0.2784
     10 C          13.4548   37.9922   29.2698 C.ar    1  UNL1        0.0840
     11 C          12.0695   37.9115   29.2912 C.ar    1  UNL1        0.0191
     12 C          11.3886   37.5240   28.1561 C.ar    1  UNL1        0.0016
     13 C          12.0788   37.2133   26.9929 C.ar    1  UNL1        0.0016
     14 C          13.4420   37.2866   26.9516 C.ar    1  UNL1        0.0206
     15 C          14.1544   37.6778   28.0907 C.ar    1  UNL1        0.0990
     16 N          15.4747   37.8397   28.3486 N.ar    1  UNL1       -0.2262
     17 C          18.1286   39.6142   33.6299 C.3     1  UNL1        0.0870
     18 C          18.1299   41.1560   33.6751 C.3     1  UNL1        0.0226
     19 C          17.8785   41.5969   35.0916 C.3     1  UNL1        0.0019
     20 C          19.1866   41.8541   35.8678 C.3     1  UNL1        0.0001
     21 C          20.2695   40.7945   35.5879 C.3     1  UNL1        0.0001
     22 C          19.7106   39.3981   35.5428 C.3     1  UNL1        0.0019
     23 C          19.3918   39.0451   34.0755 C.3     1  UNL1        0.0226
     24 C          12.9791   38.8415   32.1557 C.3     1  UNL1        0.0644
     25 C          12.3781   40.2141   31.8462 C.3     1  UNL1        0.0079
     26 C          11.0292   40.0342   31.1468 C.3     1  UNL1        0.0005
     27 C           9.3905   41.2337   29.6914 C.3     1  UNL1        0.0000
     28 C          10.4648   41.4047   30.7672 C.3     1  UNL1        0.0000
     29 O          18.8887   38.2501   28.9896 O.3     1  UNL1       -0.4224
     30 C          20.1825   38.5912   28.8873 C.2     1  UNL1        0.3215
     31 O          20.4884   39.7139   28.5477 O.2     1  UNL1       -0.2497
     32 C          21.2552   37.5783   29.1945 C.3     1  UNL1        0.1100
     33 C          22.4384   38.2767   29.8677 C.3     1  UNL1        0.0117
     34 C          23.7190   37.4839   29.5985 C.3     1  UNL1        0.0006
     35 C          24.5180   37.3495   30.8964 C.3     1  UNL1        0.0000
     36 C          24.6408   35.8707   31.2689 C.3     1  UNL1        0.0000
@<TRIPOS>BOND
     1    27    28    1
     2    28    26    1
     3    26    25    1
     4    25    24    1
     5    24     1    1
     6     1     9   ar
     7     1     2   ar
     8     2     3   ar
     9     3     7   ar
    10     3     4   ar
    11     4     5   ar
    12     4     8   ar
    13     5     6   ar
    14     5    29    1
    15     6     7   ar
    16     7    17    1
    17    17    23    1
    18    17    18    1
    19    18    19    1
    20    19    20    1
    21    20    21    1
    22    21    22    1
    23    22    23    1
    24    29    30    1
    25    30    31    2
    26    30    32    1
    27    32    33    1
    28    33    34    1
    29    34    35    1
    30    35    36    1
    31     8    16   ar
    32     8     9   ar
    33     9    10   ar
    34    10    15   ar
    35    10    11   ar
    36    11    12   ar
    37    12    13   ar
    38    13    14   ar
    39    14    15   ar
    40    15    16   ar
@<TRIPOS>MOLECULE
ZINC12295095
 34 37 0 0 0
SMALL
GASTEIGER

@<TRIPOS>ATOM
      1 C          22.6943   39.2511   28.8165 C.ar    1  UNL1        0.0593
      2 C          23.6393   38.6162   27.9172 C.ar    1  UNL1        0.0113
      3 C          24.1705   37.4355   28.3243 C.ar    1  UNL1        0.0338
      4 S          23.4150   37.1726   29.9150 S.2     1  UNL1       -0.1111
      5 C          22.4328   38.5946   30.0127 C.ar    1  UNL1       -0.0849
      6 C          24.0022   39.2242   26.6149 C.ar    1  UNL1        0.0008
      7 C          25.0283   40.1656   26.5443 C.ar    1  UNL1        0.0023
      8 C          25.3652   40.7257   25.3292 C.ar    1  UNL1        0.0296
      9 C          24.6795   40.3610   24.1819 C.ar    1  UNL1        0.1401
     10 C          23.6557   39.4299   24.2479 C.ar    1  UNL1        0.0296
     11 C          23.3147   38.8609   25.4577 C.ar    1  UNL1        0.0023
     12 F          25.0099   40.9156   22.9951 F       1  UNL1       -0.2042
     13 C          22.0519   40.5218   28.4823 C.2     1  UNL1        0.3399
     14 O          20.8881   40.5405   28.1287 O.2     1  UNL1       -0.2449
     15 O          22.7502   41.6731   28.5661 O.3     1  UNL1       -0.4455
     16 C          22.9509   44.0757   28.7324 C.3     1  UNL1        0.0513
     17 C          21.9982   42.8882   28.5804 C.3     1  UNL1        0.2089
     18 N          21.5849   38.9822   31.0357 N.am    1  UNL1       -0.6030
     19 C          20.2829   38.6357   30.9995 C.2     1  UNL1        0.1167
     20 O          19.8632   37.9404   30.0930 O.2     1  UNL1       -0.3098
     21 C          19.3724   39.0961   32.0519 C.ar    1  UNL1        0.1603
     22 C          19.7252   39.8047   33.1651 C.ar    1  UNL1        0.0416
     23 C          18.5461   40.0242   33.8941 C.ar    1  UNL1        0.0370
     24 C          17.5380   39.4477   33.2030 C.ar    1  UNL1        0.1341
     25 O          18.0397   38.8895   32.0937 O.2     1  UNL1       -0.4556
     26 C          16.0878   39.4352   33.6129 C.3     1  UNL1        0.1264
     27 S          15.1325   40.4900   32.4879 S.3     1  UNL1       -0.1055
     28 C          14.6783   39.4089   31.1727 C.ar    1  UNL1        0.0256
     29 C          13.4409   38.7764   31.1868 C.ar    1  UNL1        0.0058
     30 C          13.0861   37.9343   30.1515 C.ar    1  UNL1       -0.0038
     31 C          13.9651   37.7109   29.1074 C.ar    1  UNL1       -0.0218
     32 C          15.1995   38.3346   29.0927 C.ar    1  UNL1       -0.0038
     33 C          15.5588   39.1824   30.1217 C.ar    1  UNL1        0.0058
     34 C          13.5769   36.7860   27.9828 C.3     1  UNL1        0.0310
@<TRIPOS>UNITY_ATOM_ATTR
18 1
charge -1
@<TRIPOS>BOND
     1    16    17    1
     2    17    15    1
     3    15    13    1
     4    13    14    2
     5    13     1    1
     6     1     5   ar
     7     1     2   ar
     8     2     3   ar
     9     2     6    1
    10     3     4   ar
    11     4     5   ar
    12     5    18    1
    13    18    19    1
    14    19    20    2
    15    19    21    1
    16    21    25   ar
    17    21    22   ar
    18    22    23   ar
    19    23    24   ar
    20    24    25   ar
    21    24    26    1
    22    26    27    1
    23    27    28    1
    24    28    33   ar
    25    28    29   ar
    26    29    30   ar
    27    30    31   ar
    28    31    32   ar
    29    31    34    1
    30    32    33   ar
    31     6    11   ar
    32     6     7   ar
    33     7     8   ar
    34     8     9   ar
    35     9    10   ar
    36     9    12    1
    37    10    11   ar
@<TRIPOS>MOLECULE
ZINC16958490
 37 41 0 0 0
SMALL
GASTEIGER

@<TRIPOS>ATOM
      1 C          15.6634   38.7956   30.6404 C.3     1  UNL1        0.2249
      2 C          14.7504   39.8878   31.2140 C.3     1  UNL1        0.1891
      3 C          13.4133   39.2437   31.5950 C.3     1  UNL1        0.1713
      4 C          12.9379   38.3710   30.4652 C.2     1  UNL1        0.0423
      5 C          13.7457   37.9557   29.5051 C.2     1  UNL1        0.1367
      6 O          15.0580   38.2834   29.4500 O.2     1  UNL1       -0.4742
      7 C          13.1891   37.0918   28.4394 C.ar    1  UNL1        0.0337
      8 C          13.9852   36.1140   27.8435 C.ar    1  UNL1        0.0030
      9 C          13.4591   35.3082   26.8546 C.ar    1  UNL1        0.0001
     10 C          12.1481   35.4763   26.4462 C.ar    1  UNL1        0.0000
     11 C          11.3549   36.4478   27.0299 C.ar    1  UNL1        0.0001
     12 C          11.8681   37.2562   28.0235 C.ar    1  UNL1        0.0030
     13 C          17.0330   39.3906   30.3074 C.3     1  UNL1        0.1885
     14 O          17.9504   38.3366   30.0082 O.3     1  UNL1       -0.3451
     15 C          19.2184   38.4690   30.6536 C.3     1  UNL1        0.1687
     16 C          22.2879   38.8210   27.7037 C.ar    1  UNL1       -0.0000
     17 C          21.7774   39.9542   28.3086 C.ar    1  UNL1       -0.0002
     18 C          20.7842   39.8404   29.2633 C.ar    1  UNL1       -0.0019
     19 C          20.3012   38.5932   29.6128 C.ar    1  UNL1        0.0073
     20 C          20.8153   37.4595   29.0116 C.ar    1  UNL1       -0.0019
     21 C          21.8058   37.5737   28.0541 C.ar    1  UNL1       -0.0002
     22 O          12.4466   40.2657   31.8464 O.3     1  UNL1       -0.3444
     23 C          11.1043   39.8845   31.5384 C.3     1  UNL1        0.1690
     24 C          10.4265   40.9984   30.7829 C.ar    1  UNL1        0.0073
     25 C           9.9345   40.7716   29.5112 C.ar    1  UNL1       -0.0019
     26 C           9.3080   41.7920   28.8203 C.ar    1  UNL1       -0.0002
     27 C           9.1836   43.0422   29.3966 C.ar    1  UNL1       -0.0000
     28 C           9.6803   43.2705   30.6664 C.ar    1  UNL1       -0.0002
     29 C          10.3017   42.2486   31.3595 C.ar    1  UNL1       -0.0019
     30 O          15.3563   40.4625   32.3736 O.3     1  UNL1       -0.3449
     31 C          15.8085   39.5016   33.3297 C.3     1  UNL1        0.1688
     32 C          17.1558   39.9178   33.8615 C.ar    1  UNL1        0.0073
     33 C          17.3820   41.2345   34.2166 C.ar    1  UNL1       -0.0019
     34 C          18.6166   41.6155   34.7080 C.ar    1  UNL1       -0.0002
     35 C          19.6276   40.6815   34.8366 C.ar    1  UNL1       -0.0000
     36 C          19.4030   39.3659   34.4765 C.ar    1  UNL1       -0.0002
     37 C          18.1672   38.9841   33.9887 C.ar    1  UNL1       -0.0019
@<TRIPOS>BOND
     1    16    21   ar
     2    16    17   ar
     3    17    18   ar
     4    18    19   ar
     5    19    20   ar
     6    19    15    1
     7    20    21   ar
     8    15    14    1
     9    14    13    1
    10    13     1    1
    11     1     6    1
    12     1     2    1
    13     2     3    1
    14     2    30    1
    15     3     4    1
    16     3    22    1
    17     4     5    2
    18     5     6    1
    19     5     7    1
    20     7    12   ar
    21     7     8   ar
    22     8     9   ar
    23     9    10   ar
    24    10    11   ar
    25    11    12   ar
    26    22    23    1
    27    23    24    1
    28    24    29   ar
    29    24    25   ar
    30    25    26   ar
    31    26    27   ar
    32    27    28   ar
    33    28    29   ar
    34    30    31    1
    35    31    32    1
    36    32    37   ar
    37    32    33   ar
    38    33    34   ar
    39    34    35   ar
    40    35    36   ar
    41    36    37   ar
@<TRIPOS>MOLECULE
ZINC13561897
 37 40 0 0 0
SMALL
GASTEIGER

@<TRIPOS>ATOM
      1 C          25.6390   39.1794   28.0635 C.3     1  UNL1        0.1399
      2 C          25.8595   37.8694   28.7750 C.ar    1  UNL1        0.0342
      3 C          26.3084   36.7675   28.0711 C.ar    1  UNL1        0.0016
      4 C          26.5151   35.5671   28.7246 C.ar    1  UNL1        0.0037
      5 C          26.2635   35.4658   30.0801 C.ar    1  UNL1        0.0714
      6 C          25.8092   36.5660   30.7828 C.ar    1  UNL1        0.0037
      7 C          25.6073   37.7678   30.1303 C.ar    1  UNL1        0.0016
      8 C          26.4839   34.1557   30.7914 C.3     1  UNL1        0.4186
      9 F          27.6816   34.2121   31.5122 F       1  UNL1       -0.1659
     10 F          25.4216   33.9176   31.6701 F       1  UNL1       -0.1659
     11 F          26.5532   33.1210   29.8523 F       1  UNL1       -0.1659
     12 N          27.6281   40.7583   28.2987 N.ar    1  UNL1       -0.2157
     13 C          26.4559   40.2565   28.7297 C.ar    1  UNL1        0.2147
     14 N          26.1657   40.8823   29.8441 N.ar    1  UNL1       -0.1065
     15 N          27.1078   41.7282   30.0824 N.ar    1  UNL1       -0.0228
     16 N          27.9915   41.6583   29.1488 N.ar    1  UNL1       -0.0431
     17 C          28.3532   40.3602   27.0896 C.3     1  UNL1        0.0897
     18 C          29.4026   41.4212   26.7517 C.3     1  UNL1        0.0245
     19 C          29.0448   39.0166   27.3288 C.3     1  UNL1        0.0245
     20 C          27.0565   41.6145   25.3611 C.3     1  UNL1        0.0020
     21 C          27.3693   40.2273   25.9254 C.3     1  UNL1        0.0226
     22 N          24.2153   39.5363   28.1247 N.4     1  UNL1        0.2895
     23 H          24.0360   39.9552   29.0373 H       1  UNL1        0.2082
     24 C          23.3677   38.3429   28.0014 C.3     1  UNL1        0.1339
     25 C          22.1535   38.4961   28.8808 C.ar    1  UNL1        0.0327
     26 C          22.2929   38.5023   30.2561 C.ar    1  UNL1        0.0023
     27 C          21.1797   38.6432   31.0632 C.ar    1  UNL1        0.0113
     28 C          19.9257   38.7778   30.4944 C.ar    1  UNL1        0.0577
     29 C          19.7868   38.7708   29.1178 C.ar    1  UNL1        0.0113
     30 C          20.9007   38.6302   28.3118 C.ar    1  UNL1        0.0023
     31 CL         18.5271   38.9542   31.5074 Cl      1  UNL1       -0.0822
     32 C          23.8772   40.5305   27.0975 C.3     1  UNL1        0.1717
     33 C          23.5344   41.8402   27.7595 C.ar    1  UNL1        0.1780
     34 C          22.4443   42.0807   28.5100 C.ar    1  UNL1        0.0422
     35 C          22.5234   43.4294   28.9270 C.ar    1  UNL1        0.0436
     36 C          23.6571   43.9323   28.4064 C.ar    1  UNL1        0.1794
     37 O          24.2683   42.9637   27.7050 O.2     1  UNL1       -0.4488
@<TRIPOS>UNITY_ATOM_ATTR
22 1
charge 1
@<TRIPOS>BOND
     1    20    21    1
     2    21    17    1
     3    17    18    1
     4    17    19    1
     5    17    12    1
     6    12    16   ar
     7    12    13   ar
     8    13    14   ar
     9    13     1    1
    10    14    15   ar
    11    15    16   ar
    12     1     2    1
    13     1    22    1
    14     2     7   ar
    15     2     3   ar
    16     3     4   ar
    17     4     5   ar
    18     5     6   ar
    19     5     8    1
    20     6     7   ar
    21     8     9    1
    22     8    10    1
    23     8    11    1
    24    22    24    1
    25    22    32    1
    26    24    25    1
    27    25    30   ar
    28    25    26   ar
    29    26    27   ar
    30    27    28   ar
    31    28    29   ar
    32    28    31    1
    33    29    30   ar
    34    32    33    1
    35    33    37   ar
    36    33    34   ar
    37    34    35   ar
    38    35    36   ar
    39    36    37   ar
    40    22    23    1
@<TRIPOS>MOLECULE
ZINC16040797
 37 41 0 0 0
SMALL
GASTEIGER

@<TRIPOS>ATOM
      1 C          25.5338   41.5178   26.9437 C.3     1  UNL1        0.1513
      2 C          25.4112   41.7259   25.4562 C.ar    1  UNL1        0.0098
      3 C          26.2927   42.5650   24.8006 C.ar    1  UNL1       -0.0014
      4 C          26.1828   42.7524   23.4354 C.ar    1  UNL1       -0.0002
      5 C          25.1855   42.1082   22.7273 C.ar    1  UNL1       -0.0000
      6 C          24.3010   41.2729   23.3837 C.ar    1  UNL1       -0.0002
      7 C          24.4136   41.0821   24.7482 C.ar    1  UNL1       -0.0014
      8 C          25.2590   42.8167   27.6569 C.ar    1  UNL1        0.0098
      9 C          26.0770   43.9100   27.4414 C.ar    1  UNL1       -0.0014
     10 C          25.8224   45.1027   28.0923 C.ar    1  UNL1       -0.0002
     11 C          24.7554   45.1992   28.9659 C.ar    1  UNL1       -0.0000
     12 C          23.9403   44.1046   29.1850 C.ar    1  UNL1       -0.0002
     13 C          24.1924   42.9131   28.5308 C.ar    1  UNL1       -0.0014
     14 C          26.9281   41.0496   27.2722 C.ar    1  UNL1        0.0098
     15 C          27.6286   40.2754   26.3662 C.ar    1  UNL1       -0.0014
     16 C          28.9092   39.8496   26.6658 C.ar    1  UNL1       -0.0002
     17 C          29.4855   40.1899   27.8752 C.ar    1  UNL1       -0.0000
     18 C          28.7832   40.9601   28.7832 C.ar    1  UNL1       -0.0002
     19 C          27.5042   41.3896   28.4818 C.ar    1  UNL1       -0.0014
     20 O          24.5886   40.5331   27.3665 O.3     1  UNL1       -0.3228
     21 C          21.9005   37.4074   26.0873 C.3     1  UNL1        0.0028
     22 C          22.7752   38.3062   26.9636 C.3     1  UNL1        0.0373
     23 C          24.1943   38.3572   26.3893 C.3     1  UNL1        0.0640
     24 C          25.0825   39.1931   27.3145 C.3     1  UNL1        0.2378
     25 O          25.0662   38.6280   28.6269 O.3     1  UNL1       -0.3038
     26 C          23.7726   38.5990   29.2337 C.3     1  UNL1        0.2652
     27 C          22.8319   37.7392   28.3856 C.3     1  UNL1        0.1719
     28 O          23.8741   38.0422   30.5458 O.3     1  UNL1       -0.3260
     29 C          24.5084   36.7624   30.5867 C.3     1  UNL1        0.1769
     30 O          21.5233   37.7545   28.9596 O.3     1  UNL1       -0.3463
     31 C          20.9976   39.0661   29.1732 C.3     1  UNL1        0.1687
     32 C          20.1618   39.0743   30.4271 C.ar    1  UNL1        0.0073
     33 C          20.7374   39.4063   31.6393 C.ar    1  UNL1       -0.0019
     34 C          19.9699   39.4176   32.7889 C.ar    1  UNL1       -0.0002
     35 C          18.6286   39.0888   32.7276 C.ar    1  UNL1       -0.0000
     36 C          18.0542   38.7517   31.5164 C.ar    1  UNL1       -0.0002
     37 C          18.8208   38.7442   30.3661 C.ar    1  UNL1       -0.0019
@<TRIPOS>BOND
     1    21    22    1
     2    22    27    1
     3    22    23    1
     4    23    24    1
     5    24    25    1
     6    24    20    1
     7    25    26    1
     8    26    27    1
     9    26    28    1
    10    27    30    1
    11    30    31    1
    12    31    32    1
    13    32    37   ar
    14    32    33   ar
    15    33    34   ar
    16    34    35   ar
    17    35    36   ar
    18    36    37   ar
    19    28    29    1
    20    20     1    1
    21     1     2    1
    22     1     8    1
    23     1    14    1
    24     2     7   ar
    25     2     3   ar
    26     3     4   ar
    27     4     5   ar
    28     5     6   ar
    29     6     7   ar
    30     8    13   ar
    31     8     9   ar
    32     9    10   ar
    33    10    11   ar
    34    11    12   ar
    35    12    13   ar
    36    14    19   ar
    37    14    15   ar
    38    15    16   ar
    39    16    17   ar
    40    17    18   ar
    41    18    19   ar
@<TRIPOS>MOLECULE
ZINC05808338
 32 33 0 0 0
SMALL
GASTEIGER

@<TRIPOS>ATOM
      1 C          22.2874   51.3410   27.4211 C.3     1  UNL1        0.0016
      2 C          22.5512   52.8463   27.5214 C.3     1  UNL1        0.0001
      3 C          22.9043   53.4051   26.1427 C.3     1  UNL1        0.0017
      4 C          24.1463   52.6950   25.5960 C.3     1  UNL1        0.0199
      5 C          23.8580   51.1982   25.4910 C.3     1  UNL1        0.0784
      6 C          23.5410   50.6503   26.8863 C.3     1  UNL1        0.0184
      7 C          23.3285   49.1401   26.7953 C.3     1  UNL1        0.0033
      8 C          24.6200   48.4789   26.3042 C.3     1  UNL1        0.0200
      9 C          24.9783   49.0147   24.9155 C.3     1  UNL1        0.0788
     10 N          25.0257   50.4842   24.9635 N.am    1  UNL1       -0.2493
     11 C          26.1123   51.1562   24.5341 C.2     1  UNL1        0.4048
     12 O          26.0979   52.3704   24.4911 O.2     1  UNL1       -0.2262
     13 C          21.1178   51.0888   26.4675 C.3     1  UNL1        0.0001
     14 C          19.8211   51.5899   27.1069 C.3     1  UNL1        0.0000
     15 C          18.9165   50.3981   27.4266 C.3     1  UNL1        0.0000
     16 C          19.8677   49.1707   29.3840 C.3     1  UNL1        0.0000
     17 C          18.8363   50.2112   28.9431 C.3     1  UNL1        0.0000
     18 O          27.2136   50.4820   24.1529 O.3     1  UNL1       -0.4345
     19 C          28.0890   51.1362   23.1969 C.3     1  UNL1        0.2125
     20 C          29.4569   51.3760   23.8390 C.3     1  UNL1        0.0514
     21 C          28.2535   50.2459   21.9636 C.3     1  UNL1        0.2342
     22 CL         28.1352   48.5144   22.4523 Cl      1  UNL1       -0.0789
     23 CL         26.9546   50.6240   20.7717 Cl      1  UNL1       -0.0789
     24 CL         29.8646   50.5498   21.2135 Cl      1  UNL1       -0.0789
     25 C          23.9178   48.5700   23.9063 C.3     1  UNL1        0.0246
     26 C          24.5015   48.6294   22.4933 C.3     1  UNL1        0.0280
     27 C          23.4121   48.9835   21.5141 C.2     1  UNL1       -0.0194
     28 C          22.1354   48.9022   21.8810 C.2     1  UNL1        0.0773
     29 C          21.0732   49.2475   20.9261 C.2     1  UNL1        0.3412
     30 O          19.9549   49.5037   21.3275 O.2     1  UNL1       -0.2449
     31 O          21.3390   49.2804   19.6050 O.3     1  UNL1       -0.4413
     32 C          20.2196   49.0799   18.7022 C.3     1  UNL1        0.2560
@<TRIPOS>BOND
     1    16    17    1
     2    17    15    1
     3    15    14    1
     4    14    13    1
     5    13     1    1
     6     1     6    1
     7     1     2    1
     8     2     3    1
     9     3     4    1
    10     4     5    1
    11     5    10    1
    12     5     6    1
    13     6     7    1
    14     7     8    1
    15     8     9    1
    16     9    10    1
    17     9    25    1
    18    10    11   am
    19    11    12    2
    20    11    18    1
    21    18    19    1
    22    19    20    1
    23    19    21    1
    24    21    22    1
    25    21    23    1
    26    21    24    1
    27    25    26    1
    28    26    27    1
    29    27    28    2
    30    28    29    1
    31    29    30    2
    32    29    31    1
    33    31    32    1
@<TRIPOS>MOLECULE
ZINC12681824
 33 36 0 0 0
SMALL
GASTEIGER

@<TRIPOS>ATOM
      1 C          23.1449   37.6721   29.9118 C.3     1  UNL1        0.0948
      2 C          23.8964   37.6317   28.5797 C.3     1  UNL1        0.2126
      3 O          23.2748   38.5527   27.6451 O.3     1  UNL1       -0.4453
      4 C          24.0921   39.2048   26.7927 C.2     1  UNL1        0.3417
      5 O          24.5387   38.6297   25.8186 O.2     1  UNL1       -0.2449
      6 C          23.7899   41.3171   28.0288 C.2     1  UNL1        0.0134
      7 C          24.4421   40.6072   27.0407 C.2     1  UNL1        0.0821
      8 C          24.0639   45.0201   28.1699 C.ar    1  UNL1        0.0075
      9 C          23.5308   43.8214   27.7678 C.ar    1  UNL1        0.0070
     10 C          24.1266   42.6667   28.2673 C.ar    1  UNL1        0.0297
     11 S          25.4318   43.3381   29.2816 S.2     1  UNL1       -0.0864
     12 C          25.1318   45.0238   29.0109 C.ar    1  UNL1        0.0354
     13 C          25.4909   41.2592   26.2342 C.ar    1  UNL1        0.0357
     14 C          26.8315   41.3812   26.4957 C.ar    1  UNL1        0.0072
     15 C          27.6257   42.0410   25.5832 C.ar    1  UNL1        0.0075
     16 C          27.0598   42.5483   24.4582 C.ar    1  UNL1        0.0354
     17 S          25.3454   42.0952   24.6633 S.2     1  UNL1       -0.0862
     18 C          21.9260   38.5877   29.7821 C.3     1  UNL1        0.2126
     19 O          21.0682   38.4188   30.9414 O.3     1  UNL1       -0.4453
     20 C          19.7369   38.4844   30.7332 C.2     1  UNL1        0.3417
     21 O          19.2628   38.0665   29.6940 O.2     1  UNL1       -0.2449
     22 C          18.8616   39.0593   31.7596 C.2     1  UNL1        0.0821
     23 C          17.5183   39.2413   31.4983 C.2     1  UNL1        0.0134
     24 C          16.6759   39.7947   32.4862 C.ar    1  UNL1        0.0297
     25 C          15.9760   39.1517   33.5033 C.ar    1  UNL1        0.0070
     26 C          15.2247   39.9415   34.3366 C.ar    1  UNL1        0.0075
     27 C          15.1916   41.2843   34.1285 C.ar    1  UNL1        0.0354
     28 S          16.2237   41.4999   32.7526 S.2     1  UNL1       -0.0864
     29 C          19.4163   39.4435   33.0711 C.ar    1  UNL1        0.0357
     30 C          19.5843   38.6775   34.1962 C.ar    1  UNL1        0.0072
     31 C          20.1350   39.2606   35.3166 C.ar    1  UNL1        0.0075
     32 C          20.4823   40.5724   35.2772 C.ar    1  UNL1        0.0354
     33 S          20.0367   41.0286   33.6098 S.2     1  UNL1       -0.0862
@<TRIPOS>BOND
     1     8    12   ar
     2     8     9   ar
     3     9    10   ar
     4    10    11   ar
     5    10     6    1
     6    11    12   ar
     7     6     7    2
     8     7    13    1
     9     7     4    1
    10    13    17   ar
    11    13    14   ar
    12    14    15   ar
    13    15    16   ar
    14    16    17   ar
    15     4     5    2
    16     4     3    1
    17     3     2    1
    18     2     1    1
    19     1    18    1
    20    18    19    1
    21    19    20    1
    22    20    21    2
    23    20    22    1
    24    22    23    2
    25    22    29    1
    26    23    24    1
    27    24    28   ar
    28    24    25   ar
    29    25    26   ar
    30    26    27   ar
    31    27    28   ar
    32    29    33   ar
    33    29    30   ar
    34    30    31   ar
    35    31    32   ar
    36    32    33   ar
@<TRIPOS>MOLECULE
ZINC13030715
 39 42 0 0 0
SMALL
GASTEIGER

@<TRIPOS>ATOM
      1 N          24.6615   38.2813   29.9666 N.ar    1  UNL1       -0.3061
      2 C          25.4784   37.3315   30.5467 C.ar    1  UNL1        0.0790
      3 C          26.8303   37.2793   30.8585 C.ar    1  UNL1        0.0188
      4 C          27.3507   36.1496   31.4529 C.ar    1  UNL1        0.0016
      5 C          26.5327   35.0661   31.7411 C.ar    1  UNL1        0.0016
      6 C          25.2003   35.1000   31.4419 C.ar    1  UNL1        0.0206
      7 C          24.6507   36.2344   30.8387 C.ar    1  UNL1        0.0983
      8 N          23.3984   36.5640   30.4304 N.ar    1  UNL1       -0.2306
      9 C          23.4044   37.7631   29.9252 C.ar    1  UNL1        0.1243
     10 C          22.1957   38.4729   29.3720 C.3     1  UNL1        0.0791
     11 C          21.5575   37.6158   28.2771 C.3     1  UNL1        0.0127
     12 C          21.1972   38.7007   30.4776 C.ar    1  UNL1       -0.0154
     13 C          21.6284   39.1166   31.7234 C.ar    1  UNL1       -0.0042
     14 C          20.7120   39.3301   32.7361 C.ar    1  UNL1       -0.0046
     15 C          19.3656   39.1177   32.5061 C.ar    1  UNL1       -0.0222
     16 C          18.9350   38.6967   31.2618 C.ar    1  UNL1       -0.0046
     17 C          19.8508   38.4882   30.2475 C.ar    1  UNL1       -0.0042
     18 C          18.3673   39.3445   33.6119 C.3     1  UNL1        0.0263
     19 C          18.0289   40.8342   33.6959 C.3     1  UNL1        0.0044
     20 C          16.5189   41.0049   33.8744 C.3     1  UNL1        0.0003
     21 C          18.7570   41.4561   34.8892 C.3     1  UNL1        0.0003
     22 C          25.0713   39.6046   29.4897 C.3     1  UNL1        0.1931
     23 N          25.0435   40.7452   27.2950 N.am    1  UNL1       -0.2568
     24 C          25.1541   39.5928   27.9850 C.2     1  UNL1        0.2525
     25 O          25.3202   38.5462   27.3950 O.2     1  UNL1       -0.2724
     26 C          26.0410   42.7156   28.2725 C.ar    1  UNL1       -0.0088
     27 C          25.9095   43.9169   28.9414 C.ar    1  UNL1       -0.0031
     28 C          24.6579   44.3642   29.3224 C.ar    1  UNL1       -0.0006
     29 C          23.5340   43.6115   29.0345 C.ar    1  UNL1       -0.0030
     30 C          23.6588   42.4096   28.3660 C.ar    1  UNL1       -0.0085
     31 C          24.9142   41.9598   27.9776 C.ar    1  UNL1        0.0459
     32 C          22.4336   41.5901   28.0526 C.3     1  UNL1        0.0323
     33 C          28.0557   43.2602   26.9333 C.3     1  UNL1        0.0051
     34 C          27.4056   42.2288   27.8576 C.3     1  UNL1        0.0276
     35 C          25.0586   40.7263   25.8302 C.3     1  UNL1        0.1094
     36 C          25.0048   42.1609   25.3011 C.3     1  UNL1        0.0245
     37 C          23.8452   39.9478   25.3176 C.3     1  UNL1        0.1623
     38 O          24.1508   39.3730   24.0456 O.3     1  UNL1       -0.3493
     39 C          23.4244   39.9488   22.9580 C.3     1  UNL1        0.1742
@<TRIPOS>BOND
     1    33    34    1
     2    34    26    1
     3    26    31   ar
     4    26    27   ar
     5    27    28   ar
     6    28    29   ar
     7    29    30   ar
     8    30    31   ar
     9    30    32    1
    10    31    23    1
    11    23    35    1
    12    23    24   am
    13    35    36    1
    14    35    37    1
    15    37    38    1
    16    38    39    1
    17    24    25    2
    18    24    22    1
    19    22     1    1
    20     1     9   ar
    21     1     2   ar
    22     2     7   ar
    23     2     3   ar
    24     3     4   ar
    25     4     5   ar
    26     5     6   ar
    27     6     7   ar
    28     7     8   ar
    29     8     9   ar
    30     9    10    1
    31    10    11    1
    32    10    12    1
    33    12    17   ar
    34    12    13   ar
    35    13    14   ar
    36    14    15   ar
    37    15    16   ar
    38    15    18    1
    39    16    17   ar
    40    18    19    1
    41    19    20    1
    42    19    21    1
@<TRIPOS>MOLECULE
ZINC12273682
 34 36 0 0 0
SMALL
GASTEIGER

@<TRIPOS>ATOM
      1 C          26.0693   37.5071   29.1258 C.3     1  UNL1        0.1394
      2 C          26.8303   37.3046   28.0363 C.2     1  UNL1        0.0474
      3 N          26.5656   37.9605   26.8651 N.2     1  UNL1       -0.2578
      4 C          25.7764   39.0781   26.8628 C.2     1  UNL1        0.0608
      5 C          24.9711   39.3541   27.9030 C.2     1  UNL1        0.0678
      6 C          24.8998   38.4494   29.1003 C.3     1  UNL1        0.0501
      7 C          25.8096   40.0103   25.6792 C.3     1  UNL1        0.0519
      8 C          27.9890   36.3437   28.1058 C.3     1  UNL1        0.0478
      9 C          26.3771   36.8188   30.3221 C.2     1  UNL1        0.3221
     10 O          27.1429   37.3128   31.1285 O.2     1  UNL1       -0.2497
     11 O          25.8215   35.6141   30.5695 O.3     1  UNL1       -0.4482
     12 C          24.9130   35.6945   32.8076 C.3     1  UNL1        0.0513
     13 C          25.9752   35.0873   31.8890 C.3     1  UNL1        0.2086
     14 C          24.1741   40.5217   27.8698 C.2     1  UNL1        0.3383
     15 O          23.0472   40.4764   27.4128 O.2     1  UNL1       -0.2452
     16 O          24.6632   41.6863   28.3449 O.3     1  UNL1       -0.4456
     17 C          24.0873   42.8893   27.8317 C.3     1  UNL1        0.2089
     18 C          23.2572   43.5643   28.9254 C.3     1  UNL1        0.0513
     19 C          23.6033   37.6393   29.0422 C.3     1  UNL1        0.0317
     20 C          22.7403   37.9863   30.2279 C.2     1  UNL1       -0.0226
     21 C          21.4906   38.4049   30.0416 C.2     1  UNL1        0.0329
     22 C          20.6851   38.8461   31.1885 C.ar    1  UNL1        0.1451
     23 C          21.1247   38.9646   32.4753 C.ar    1  UNL1        0.0406
     24 C          20.0371   39.4128   33.2390 C.ar    1  UNL1        0.0406
     25 C          18.9817   39.5486   32.3874 C.ar    1  UNL1        0.1461
     26 O          19.3876   39.2085   31.1488 O.2     1  UNL1       -0.4535
     27 C          17.6253   39.9984   32.7585 C.ar    1  UNL1        0.0460
     28 C          16.5051   39.4153   32.1618 C.ar    1  UNL1        0.0153
     29 C          15.2400   39.8404   32.5139 C.ar    1  UNL1        0.0578
     30 C          15.0799   40.8426   33.4565 C.ar    1  UNL1        0.0123
     31 C          16.1847   41.4241   34.0517 C.ar    1  UNL1        0.0124
     32 C          17.4561   41.0052   33.7126 C.ar    1  UNL1        0.0606
     33 CL         18.8412   41.7323   34.4654 Cl      1  UNL1       -0.0821
     34 CL         13.8462   39.1176   31.7731 Cl      1  UNL1       -0.0822
@<TRIPOS>BOND
     1    12    13    1
     2    13    11    1
     3    11     9    1
     4     9    10    2
     5     9     1    1
     6     1     6    1
     7     1     2    1
     8     2     8    1
     9     2     3    2
    10     3     4    1
    11     4     7    1
    12     4     5    2
    13     5     6    1
    14     5    14    1
    15     6    19    1
    16    19    20    1
    17    20    21    2
    18    21    22    1
    19    22    26   ar
    20    22    23   ar
    21    23    24   ar
    22    24    25   ar
    23    25    26   ar
    24    25    27    1
    25    27    32   ar
    26    27    28   ar
    27    28    29   ar
    28    29    30   ar
    29    29    34    1
    30    30    31   ar
    31    31    32   ar
    32    32    33    1
    33    14    15    2
    34    14    16    1
    35    16    17    1
    36    17    18    1
@<TRIPOS>MOLECULE
ZINC01662328
 35 38 0 0 0
SMALL
GASTEIGER

@<TRIPOS>ATOM
      1 C          18.9819   39.0739   31.7181 C.ar    1  UNL1        0.0183
      2 C          20.2378   39.2356   32.3042 C.ar    1  UNL1        0.0031
      3 C          21.3757   38.9485   31.5850 C.ar    1  UNL1        0.0191
      4 C          21.2731   38.5054   30.2631 C.ar    1  UNL1        0.0814
      5 C          20.0143   38.3489   29.6755 C.ar    1  UNL1        0.0191
      6 C          18.8779   38.6313   30.3988 C.ar    1  UNL1        0.0031
      7 C          15.4824   39.6943   32.5898 C.ar    1  UNL1        0.0926
      8 N          16.5704   39.4262   31.9101 N.ar    1  UNL1       -0.2424
      9 C          17.7572   39.3786   32.4956 C.ar    1  UNL1        0.0880
     10 C          17.8168   39.6195   33.8427 C.ar    1  UNL1        0.0556
     11 S          16.0899   39.9042   34.2026 S.2     1  UNL1       -0.0699
     12 C          14.0614   39.7893   32.0970 C.3     1  UNL1        0.0788
     13 C          13.6173   37.4244   28.5654 C.ar    1  UNL1        0.1387
     14 C          12.5576   37.5564   29.4510 C.ar    1  UNL1        0.0366
     15 C          12.7037   38.3214   30.5919 C.ar    1  UNL1       -0.0008
     16 C          13.9048   38.9554   30.8516 C.ar    1  UNL1       -0.0155
     17 C          14.9605   38.8300   29.9677 C.ar    1  UNL1       -0.0008
     18 C          14.8214   38.0615   28.8281 C.ar    1  UNL1        0.0366
     19 C          12.1433   36.3477   27.0421 C.3     1  UNL1        0.2525
     20 O          13.4762   36.6721   27.4425 O.3     1  UNL1       -0.4714
     21 N          22.4028   38.2249   29.5459 N.2     1  UNL1       -0.2438
     22 C          23.3673   37.5366   30.0910 C.2     1  UNL1        0.0988
     23 C          24.5820   37.2349   29.3199 C.ar    1  UNL1        0.0192
     24 C          25.6598   36.5862   29.9337 C.ar    1  UNL1        0.0028
     25 C          26.7933   36.3017   29.2070 C.ar    1  UNL1        0.0146
     26 C          26.8727   36.6668   27.8661 C.ar    1  UNL1        0.0479
     27 C          25.8052   37.3168   27.2533 C.ar    1  UNL1        0.0146
     28 C          24.6661   37.6007   27.9714 C.ar    1  UNL1        0.0028
     29 N          28.0232   36.3815   27.1360 N.pl3   1  UNL1       -0.3049
     30 C          29.2988   36.9978   27.5087 C.3     1  UNL1        0.1083
     31 C          29.3666   38.4154   26.9372 C.3     1  UNL1        0.1162
     32 CL         28.8386   39.5959   28.1937 Cl      1  UNL1       -0.1118
     33 C          27.9582   35.4649   25.9950 C.3     1  UNL1        0.1083
     34 C          28.3605   34.0594   26.4463 C.3     1  UNL1        0.1162
     35 CL         26.9180   33.2054   27.1100 Cl      1  UNL1       -0.1118
@<TRIPOS>BOND
     1    19    20    1
     2    20    13    1
     3    13    18   ar
     4    13    14   ar
     5    14    15   ar
     6    15    16   ar
     7    16    17   ar
     8    16    12    1
     9    17    18   ar
    10    12     7    1
    11     7    11   ar
    12     7     8   ar
    13     8     9   ar
    14     9    10   ar
    15     9     1    1
    16    10    11   ar
    17     1     6   ar
    18     1     2   ar
    19     2     3   ar
    20     3     4   ar
    21     4     5   ar
    22     4    21    1
    23     5     6   ar
    24    21    22    2
    25    22    23    1
    26    23    28   ar
    27    23    24   ar
    28    24    25   ar
    29    25    26   ar
    30    26    27   ar
    31    26    29    1
    32    27    28   ar
    33    29    30    1
    34    29    33    1
    35    30    31    1
    36    31    32    1
    37    33    34    1
    38    34    35    1
@<TRIPOS>MOLECULE
ZINC17327451
 35 38 0 0 0
SMALL
GASTEIGER

@<TRIPOS>ATOM
      1 C          12.7104   37.3583   29.3516 C.3     1  UNL1        0.0000
      2 C          13.6044   36.4970   28.4265 C.3     1  UNL1        0.0000
      3 C          15.0509   37.0231   28.6045 C.3     1  UNL1        0.0003
      4 C          14.8525   38.4652   29.1025 C.3     1  UNL1        0.0038
      5 C          13.6608   38.3135   30.0767 C.3     1  UNL1        0.0006
      6 C          13.0660   39.6688   30.3966 C.3     1  UNL1        0.0043
      7 C          14.2029   40.6812   30.6040 C.3     1  UNL1        0.0214
      8 C          15.4700   39.9237   30.9479 C.2     1  UNL1       -0.0522
      9 C          16.0266   40.0727   32.1125 C.2     1  UNL1       -0.0491
     10 C          15.3980   41.0540   33.0889 C.3     1  UNL1        0.0252
     11 C          16.4877   42.0180   33.5681 C.3     1  UNL1        0.0479
     12 C          17.6527   41.2209   34.1565 C.3     1  UNL1        0.1696
     13 C          18.2902   40.3553   33.0675 C.3     1  UNL1        0.0508
     14 C          17.2605   39.3439   32.5574 C.3     1  UNL1        0.0550
     15 C          17.8688   38.4693   31.4773 C.3     1  UNL1        0.1724
     16 C          16.7787   37.8570   30.5957 C.3     1  UNL1        0.0479
     17 C          16.0398   38.9962   29.8941 C.3     1  UNL1        0.0213
     18 C          16.8632   38.4433   33.7287 C.3     1  UNL1        0.0077
     19 C          14.1386   37.6469   31.3682 C.3     1  UNL1        0.0000
     20 C          11.6952   38.1499   28.5246 C.3     1  UNL1        0.0000
     21 C          10.5759   38.6542   29.4377 C.3     1  UNL1        0.0000
     22 C          11.1023   37.2450   27.4429 C.3     1  UNL1        0.0000
     23 C          11.2450   37.9211   26.0777 C.3     1  UNL1        0.0000
     24 C          10.2677   37.2836   25.0881 C.3     1  UNL1        0.0000
     25 C           9.9456   39.7457   24.8119 C.3     1  UNL1        0.0000
     26 C           9.6533   38.3718   24.2055 C.3     1  UNL1        0.0000
     27 C          10.2601   38.2939   22.8030 C.3     1  UNL1        0.0000
     28 O          18.7538   39.2734   30.6536 O.3     1  UNL1       -0.4519
     29 C          19.8452   38.6673   30.1603 C.2     1  UNL1        0.3174
     30 O          19.7826   38.0704   29.1116 O.2     1  UNL1       -0.2501
     31 C          21.1484   38.7312   30.9143 C.3     1  UNL1        0.1212
     32 O          18.6456   42.1378   34.6873 O.3     1  UNL1       -0.4522
     33 C          19.4848   41.6556   35.6174 C.2     1  UNL1        0.3174
     34 O          19.2833   41.8798   36.7874 O.2     1  UNL1       -0.2501
     35 C          20.6784   40.8346   35.2022 C.3     1  UNL1        0.1212
@<TRIPOS>BOND
     1    25    26    1
     2    26    27    1
     3    26    24    1
     4    24    23    1
     5    23    22    1
     6    22    20    1
     7    20    21    1
     8    20     1    1
     9     1     5    1
    10     1     2    1
    11     2     3    1
    12     3     4    1
    13     4    17    1
    14     4     5    1
    15     5     6    1
    16     5    19    1
    17     6     7    1
    18     7     8    1
    19     8    17    1
    20     8     9    2
    21     9    14    1
    22     9    10    1
    23    10    11    1
    24    11    12    1
    25    12    13    1
    26    12    32    1
    27    13    14    1
    28    14    15    1
    29    14    18    1
    30    15    16    1
    31    15    28    1
    32    16    17    1
    33    28    29    1
    34    29    30    2
    35    29    31    1
    36    32    33    1
    37    33    34    2
    38    33    35    1
@<TRIPOS>MOLECULE
ZINC22078628
 35 38 0 0 0
SMALL
GASTEIGER

@<TRIPOS>ATOM
      1 C          15.7469   38.7136   31.7317 C.3     1  UNL1        0.2438
      2 C          19.1662   38.9296   30.6099 C.ar    1  UNL1        0.1650
      3 N          17.9168   38.6368   30.3812 N.ar    1  UNL1       -0.1452
      4 N          17.1886   38.8991   31.5496 N.ar    1  UNL1       -0.1773
      5 C          18.0583   39.3480   32.4777 C.ar    1  UNL1        0.1850
      6 S          17.6772   39.8040   34.0833 S.2     1  UNL1       -0.0110
      7 N          19.2819   39.3722   31.9129 N.ar    1  UNL1       -0.2893
      8 C          20.5217   39.7954   32.5686 C.3     1  UNL1        0.1339
      9 C          22.3514   38.5634   27.8220 C.ar    1  UNL1       -0.0228
     10 C          21.8980   39.8179   28.1890 C.ar    1  UNL1       -0.0042
     11 C          20.8638   39.9435   29.0936 C.ar    1  UNL1        0.0027
     12 C          20.2754   38.8020   29.6388 C.ar    1  UNL1        0.0359
     13 C          20.7410   37.5400   29.2690 C.ar    1  UNL1        0.0027
     14 C          21.7724   37.4276   28.3595 C.ar    1  UNL1       -0.0042
     15 C          24.6746   37.7550   27.5082 C.3     1  UNL1        0.0044
     16 C          23.4810   38.4335   26.8330 C.3     1  UNL1        0.0189
     17 C          23.0216   37.5901   25.6419 C.3     1  UNL1        0.0044
     18 C          23.8938   39.8235   26.3447 C.3     1  UNL1        0.0044
     19 N          15.0730   38.8057   30.4296 N.4     1  UNL1        0.3042
     20 H          15.7688   39.0775   29.7351 H       1  UNL1        0.2096
     21 C          14.0280   39.8380   30.4497 C.3     1  UNL1        0.1407
     22 C          13.1234   39.6245   31.6650 C.3     1  UNL1        0.2029
     23 O          11.7597   39.5747   31.2409 O.3     1  UNL1       -0.3449
     24 C          11.1753   38.2728   31.3144 C.3     1  UNL1        0.1744
     25 C          14.5202   37.5048   30.0297 C.3     1  UNL1        0.1956
     26 C          13.9125   37.6183   28.6554 C.ar    1  UNL1        0.2823
     27 N          14.5650   37.7318   27.5331 N.ar    1  UNL1       -0.1051
     28 N          13.7320   37.8016   26.5549 N.ar    1  UNL1       -0.1065
     29 C          12.5052   37.7438   27.0258 C.ar    1  UNL1        0.2558
     30 O          12.5984   37.6266   28.3666 O.2     1  UNL1       -0.4139
     31 C          11.2646   37.7967   26.2383 C.ar    1  UNL1        0.0846
     32 C          10.5062   36.7558   25.7356 C.ar    1  UNL1        0.0117
     33 C           9.3691   37.0589   25.0234 C.ar    1  UNL1        0.0076
     34 C           9.0344   38.3610   24.8281 C.ar    1  UNL1        0.0356
     35 S          10.3486   39.2221   25.6751 S.2     1  UNL1       -0.0817
@<TRIPOS>UNITY_ATOM_ATTR
19 1
charge 1
@<TRIPOS>BOND
     1    15    16    1
     2    16    17    1
     3    16    18    1
     4    16     9    1
     5     9    14   ar
     6     9    10   ar
     7    10    11   ar
     8    11    12   ar
     9    12    13   ar
    10    12     2    1
    11    13    14   ar
    12     2     7   ar
    13     2     3   ar
    14     3     4   ar
    15     4     5   ar
    16     4     1    1
    17     5     6    2
    18     5     7   ar
    19     7     8    1
    20     1    19    1
    21    19    21    1
    22    19    25    1
    23    21    22    1
    24    22    23    1
    25    23    24    1
    26    25    26    1
    27    26    30   ar
    28    26    27   ar
    29    27    28   ar
    30    28    29   ar
    31    29    30   ar
    32    29    31    1
    33    31    35   ar
    34    31    32   ar
    35    32    33   ar
    36    33    34   ar
    37    34    35   ar
    38    19    20    1
@<TRIPOS>MOLECULE
ZINC25557428
 36 39 0 0 0
SMALL
GASTEIGER

@<TRIPOS>ATOM
      1 C          26.1853   36.8950   31.0941 C.3     1  UNL1        0.0006
      2 C          25.4469   36.3966   32.3616 C.3     1  UNL1        0.0004
      3 C          25.6087   34.8518   32.3831 C.3     1  UNL1        0.0043
      4 C          25.8469   34.5111   30.9078 C.3     1  UNL1        0.0220
      5 C          26.8205   35.6516   30.4845 C.3     1  UNL1        0.0078
      6 C          26.9396   35.6082   28.9757 C.3     1  UNL1        0.0260
      7 C          27.4659   34.2431   28.5874 C.2     1  UNL1       -0.0306
      8 C          27.3272   33.1760   29.3558 C.2     1  UNL1       -0.0281
      9 C          26.5925   33.2389   30.6442 C.2     1  UNL1       -0.0308
     10 C          26.6105   32.2285   31.4847 C.2     1  UNL1       -0.0271
     11 C          27.3565   30.9541   31.2134 C.3     1  UNL1        0.0662
     12 C          28.4895   31.1829   30.2120 C.3     1  UNL1        0.1465
     13 C          27.9176   31.8461   28.9497 C.3     1  UNL1        0.0524
     14 C          26.8222   30.9544   28.3666 C.3     1  UNL1        0.0111
     15 C          27.4187   29.5962   27.9909 C.3     1  UNL1        0.0442
     16 C          28.0100   28.9345   29.2370 C.3     1  UNL1        0.1723
     17 C          29.0999   29.8318   29.8268 C.3     1  UNL1        0.0843
     18 C          29.0321   32.0616   27.9237 C.3     1  UNL1        0.0078
     19 C          28.1940   35.4179   31.1169 C.3     1  UNL1        0.0007
     20 C          25.1915   37.5186   30.1120 C.3     1  UNL1        0.0000
     21 C          25.6455   38.9361   29.7580 C.3     1  UNL1        0.0000
     22 C          23.8045   37.5731   30.7556 C.3     1  UNL1        0.0000
     23 C          22.7342   37.3994   29.6762 C.3     1  UNL1        0.0000
     24 C          21.9984   38.7249   29.4697 C.3     1  UNL1        0.0000
     25 C          20.6467   38.6746   30.1845 C.3     1  UNL1        0.0000
     26 C          22.9673   39.7220   27.3937 C.3     1  UNL1        0.0000
     27 C          21.7760   38.9570   27.9738 C.3     1  UNL1        0.0000
     28 C          21.6406   37.6089   27.2630 C.3     1  UNL1        0.0000
     29 O          26.9621   28.7355   30.2222 O.3     1  UNL1       -0.4521
     30 C          26.0596   27.7754   29.9664 C.2     1  UNL1        0.3174
     31 O          26.4236   26.6387   29.7784 O.2     1  UNL1       -0.2501
     32 C          24.5923   28.1152   29.9139 C.3     1  UNL1        0.1212
     33 O          29.5081   32.0272   30.8101 O.3     1  UNL1       -0.4550
     34 C          29.8608   31.7531   32.0758 C.2     1  UNL1        0.3174
     35 O          30.2236   30.6399   32.3743 O.2     1  UNL1       -0.2501
     36 C          29.8044   32.8338   33.1247 C.3     1  UNL1        0.1212
@<TRIPOS>BOND
     1    26    27    1
     2    27    28    1
     3    27    24    1
     4    24    25    1
     5    24    23    1
     6    23    22    1
     7    22    20    1
     8    20    21    1
     9    20     1    1
    10     1     5    1
    11     1     2    1
    12     2     3    1
    13     3     4    1
    14     4     9    1
    15     4     5    1
    16     5     6    1
    17     5    19    1
    18     6     7    1
    19     7     8    2
    20     8    13    1
    21     8     9    1
    22     9    10    2
    23    10    11    1
    24    11    12    1
    25    12    17    1
    26    12    13    1
    27    12    33    1
    28    13    14    1
    29    13    18    1
    30    14    15    1
    31    15    16    1
    32    16    17    1
    33    16    29    1
    34    29    30    1
    35    30    31    2
    36    30    32    1
    37    33    34    1
    38    34    35    2
    39    34    36    1
@<TRIPOS>MOLECULE
ZINC25152173
 38 41 0 0 0
SMALL
GASTEIGER

@<TRIPOS>ATOM
      1 C          27.9317   38.7172   26.1208 C.ar    1  UNL1        0.0419
      2 C          29.1232   38.2553   25.6838 C.ar    1  UNL1        0.0146
      3 C          29.2537   36.9267   26.1208 C.ar    1  UNL1        0.0187
      4 C          28.1232   36.6134   26.8140 C.ar    1  UNL1        0.0634
      5 N          27.3070   37.7181   26.8103 N.ar    1  UNL1       -0.3099
      6 C          27.8275   35.3149   27.4556 C.ar    1  UNL1        0.0121
      7 C          28.1554   35.1045   28.7961 C.ar    1  UNL1        0.0008
      8 C          27.8770   33.8904   29.3887 C.ar    1  UNL1       -0.0042
      9 C          27.2739   32.8822   28.6574 C.ar    1  UNL1       -0.0222
     10 C          26.9463   33.0842   27.3286 C.ar    1  UNL1       -0.0085
     11 C          27.2142   34.2959   26.7254 C.ar    1  UNL1       -0.0208
     12 C          26.8511   34.5163   25.2795 C.3     1  UNL1        0.0311
     13 C          26.9721   31.5586   29.3116 C.3     1  UNL1        0.0310
     14 C          26.0471   37.8065   27.4172 C.ar    1  UNL1        0.0637
     15 C          24.8958   37.6652   26.6538 C.ar    1  UNL1        0.0172
     16 C          23.6555   37.7486   27.2556 C.ar    1  UNL1       -0.0017
     17 C          23.5592   37.9825   28.6151 C.ar    1  UNL1       -0.0070
     18 C          24.7038   38.1284   29.3771 C.ar    1  UNL1       -0.0017
     19 C          25.9472   38.0413   28.7819 C.ar    1  UNL1        0.0172
     20 C          22.2042   38.0782   29.2676 C.3     1  UNL1        0.1316
     21 C          21.2646   37.1760   28.5821 C.1     1  UNL1        0.0780
     22 N          20.5394   36.4798   28.0530 N.1     1  UNL1       -0.1955
     23 C          27.3827   40.1005   25.8841 C.3     1  UNL1        0.0537
     24 C          28.2767   41.1297   26.5786 C.3     1  UNL1        0.0915
     25 N          26.8304   42.7989   27.6925 N.am    1  UNL1       -0.2754
     26 C          27.5670   41.6746   27.7913 C.2     1  UNL1        0.2263
     27 O          27.6590   41.1014   28.8562 O.2     1  UNL1       -0.2748
     28 C          26.7193   43.4913   26.4063 C.3     1  UNL1        0.0937
     29 C          26.9464   44.9901   26.6125 C.3     1  UNL1        0.0215
     30 C          29.3965   44.7943   26.1643 C.3     1  UNL1        0.0001
     31 C          28.0939   45.4603   25.7165 C.3     1  UNL1        0.0018
     32 C          26.1406   43.3285   28.8715 C.3     1  UNL1        0.1201
     33 C          24.6656   43.0392   28.7628 C.ar    1  UNL1       -0.0023
     34 C          23.7441   44.0270   29.0557 C.ar    1  UNL1       -0.0026
     35 C          22.3912   43.7631   28.9513 C.ar    1  UNL1       -0.0003
     36 C          21.9597   42.5084   28.5636 C.ar    1  UNL1       -0.0000
     37 C          22.8811   41.5189   28.2762 C.ar    1  UNL1       -0.0003
     38 C          24.2342   41.7843   28.3755 C.ar    1  UNL1       -0.0026
@<TRIPOS>BOND
     1    30    31    1
     2    31    29    1
     3    29    28    1
     4    28    25    1
     5    25    32    1
     6    25    26   am
     7    32    33    1
     8    33    38   ar
     9    33    34   ar
    10    34    35   ar
    11    35    36   ar
    12    36    37   ar
    13    37    38   ar
    14    26    27    2
    15    26    24    1
    16    24    23    1
    17    23     1    1
    18     1     5   ar
    19     1     2   ar
    20     2     3   ar
    21     3     4   ar
    22     4     5   ar
    23     4     6    1
    24     5    14    1
    25    14    19   ar
    26    14    15   ar
    27    15    16   ar
    28    16    17   ar
    29    17    18   ar
    30    17    20    1
    31    18    19   ar
    32    20    21    1
    33    21    22    3
    34     6    11   ar
    35     6     7   ar
    36     7     8   ar
    37     8     9   ar
    38     9    10   ar
    39     9    13    1
    40    10    11   ar
    41    11    12    1
@<TRIPOS>MOLECULE
ZINC11119447
 36 40 0 0 0
SMALL
GASTEIGER

@<TRIPOS>ATOM
      1 C          22.7028   39.7715   28.2380 C.ar    1  UNL1        0.1936
      2 N          22.0193   40.8569   28.5180 N.ar    1  UNL1       -0.1224
      3 N          20.9402   40.5442   29.1423 N.ar    1  UNL1       -0.1325
      4 C          20.8756   39.2531   29.3049 C.ar    1  UNL1        0.1483
      5 N          21.9940   38.7140   28.7316 N.ar    1  UNL1       -0.2893
      6 S          24.2436   39.6943   27.3866 S.3     1  UNL1       -0.0687
      7 C          25.7698   41.2637   29.0209 C.3     1  UNL1        0.0204
      8 C          25.3831   39.8016   28.7886 C.3     1  UNL1        0.1164
      9 C          26.6215   38.9956   28.4923 C.2     1  UNL1        0.1845
     10 O          27.4776   39.4458   27.7586 O.2     1  UNL1       -0.2904
     11 C          26.7868   37.7121   29.0701 C.ar    1  UNL1        0.0541
     12 C          26.9181   37.4182   30.4106 C.ar    1  UNL1        0.0790
     13 N          27.0515   36.0879   30.5711 N.ar    1  UNL1       -0.3217
     14 C          27.0253   35.4439   29.3506 C.ar    1  UNL1        0.0603
     15 C          26.8595   36.4216   28.3571 C.ar    1  UNL1        0.0200
     16 C          26.7984   36.0530   27.0166 C.ar    1  UNL1        0.0016
     17 C          26.9018   34.7231   26.6693 C.ar    1  UNL1        0.0001
     18 C          27.0661   33.7554   27.6489 C.ar    1  UNL1        0.0015
     19 C          27.1279   34.1070   28.9801 C.ar    1  UNL1        0.0172
     20 C          27.2095   35.4166   31.8637 C.3     1  UNL1        0.1325
     21 C          26.2861   36.0479   32.8737 C.2     1  UNL1       -0.0018
     22 C          25.2367   35.3911   33.3021 C.2     1  UNL1       -0.0029
     23 C          22.3565   37.2963   28.6614 C.3     1  UNL1        0.1356
     24 C          23.4364   37.0033   29.6708 C.2     1  UNL1       -0.0017
     25 C          23.3870   37.5499   30.8603 C.2     1  UNL1       -0.0029
     26 C          19.7700   38.4937   29.9921 C.3     1  UNL1        0.0922
     27 C          19.5986   39.0160   31.3952 C.ar    1  UNL1       -0.0146
     28 C          20.6900   39.3054   32.1557 C.ar    1  UNL1       -0.0038
     29 C          20.5513   39.7840   33.4569 C.ar    1  UNL1       -0.0003
     30 C          19.3204   39.9803   34.0039 C.ar    1  UNL1       -0.0000
     31 C          18.1705   39.6976   33.2477 C.ar    1  UNL1       -0.0003
     32 C          18.3116   39.2110   31.9239 C.ar    1  UNL1       -0.0035
     33 C          17.1612   38.9277   31.1678 C.ar    1  UNL1       -0.0003
     34 C          15.9307   39.1237   31.7149 C.ar    1  UNL1       -0.0000
     35 C          15.7919   39.6022   33.0167 C.ar    1  UNL1       -0.0000
     36 C          16.8829   39.8869   33.7787 C.ar    1  UNL1       -0.0000
@<TRIPOS>BOND
     1     7     8    1
     2     8     9    1
     3     8     6    1
     4     9    10    2
     5     9    11    1
     6    11    15   ar
     7    11    12   ar
     8    12    13   ar
     9    13    14   ar
    10    13    20    1
    11    14    19   ar
    12    14    15   ar
    13    15    16   ar
    14    16    17   ar
    15    17    18   ar
    16    18    19   ar
    17    20    21    1
    18    21    22    2
    19     6     1    1
    20     1     5   ar
    21     1     2   ar
    22     2     3   ar
    23     3     4   ar
    24     4     5   ar
    25     4    26    1
    26     5    23    1
    27    23    24    1
    28    24    25    2
    29    26    27    1
    30    27    32   ar
    31    27    28   ar
    32    28    29   ar
    33    29    30   ar
    34    30    31   ar
    35    31    36   ar
    36    31    32   ar
    37    32    33   ar
    38    33    34   ar
    39    34    35   ar
    40    35    36   ar
@<TRIPOS>MOLECULE
ZINC25575289
 36 39 0 0 0
SMALL
GASTEIGER

@<TRIPOS>ATOM
      1 P          20.8732   39.4534   29.1413 P.3     1  UNL1        0.3878
      2 O          19.8559   38.7856   28.2989 O.2     1  UNL1       -0.2513
      3 C          23.1534   38.2773   27.9354 C.ar    1  UNL1        0.2262
      4 C          22.4306   38.5270   29.0573 C.ar    1  UNL1        0.2131
      5 N          23.0718   37.9668   30.0903 N.ar    1  UNL1       -0.1994
      6 C          24.1628   37.3818   29.6438 C.ar    1  UNL1        0.2317
      7 O          24.2333   37.5621   28.3090 O.2     1  UNL1       -0.4207
      8 C          24.0364   39.1516   25.9342 C.3     1  UNL1        0.1151
      9 N          22.8393   38.6827   26.6448 N.pl3   1  UNL1       -0.2745
     10 C          22.1745   37.6041   25.9014 C.3     1  UNL1        0.1151
     11 C          25.1376   36.6568   30.4598 C.2     1  UNL1        0.0581
     12 C          24.7173   35.8580   31.4613 C.2     1  UNL1        0.0048
     13 C          25.6977   35.1288   32.2822 C.ar    1  UNL1        0.0002
     14 C          25.8390   35.4294   33.6405 C.ar    1  UNL1        0.0000
     15 C          26.7556   34.7380   34.4042 C.ar    1  UNL1        0.0000
     16 C          27.5429   33.7570   33.8269 C.ar    1  UNL1        0.0000
     17 C          27.4127   33.4574   32.4821 C.ar    1  UNL1        0.0000
     18 C          26.4966   34.1360   31.7065 C.ar    1  UNL1        0.0000
     19 O          20.3593   39.5020   30.6663 O.3     1  UNL1       -0.2898
     20 C          19.5594   38.4724   31.2512 C.3     1  UNL1        0.1564
     21 C          18.3823   39.1032   31.9978 C.3     1  UNL1        0.0589
     22 C          18.8834   39.7742   33.2506 C.ar    1  UNL1       -0.0197
     23 C          19.8843   39.1827   33.9984 C.ar    1  UNL1       -0.0042
     24 C          20.3474   39.8006   35.1449 C.ar    1  UNL1       -0.0003
     25 C          19.8027   41.0051   35.5492 C.ar    1  UNL1       -0.0000
     26 C          18.7979   41.5939   34.8044 C.ar    1  UNL1       -0.0003
     27 C          18.3384   40.9786   33.6550 C.ar    1  UNL1       -0.0042
     28 O          21.1116   40.9533   28.6072 O.3     1  UNL1       -0.2898
     29 C          22.4098   41.5373   28.4808 C.3     1  UNL1        0.1564
     30 C          22.3168   43.0448   28.7253 C.3     1  UNL1        0.0589
     31 C          23.6927   43.6535   28.6384 C.ar    1  UNL1       -0.0197
     32 C          24.8122   42.8498   28.7467 C.ar    1  UNL1       -0.0042
     33 C          26.0742   43.4075   28.6622 C.ar    1  UNL1       -0.0003
     34 C          26.2168   44.7702   28.4794 C.ar    1  UNL1       -0.0000
     35 C          25.0973   45.5747   28.3767 C.ar    1  UNL1       -0.0003
     36 C          23.8353   45.0163   28.4560 C.ar    1  UNL1       -0.0042
@<TRIPOS>BOND
     1     8     9    1
     2     9    10    1
     3     9     3    1
     4     3     7   ar
     5     3     4   ar
     6     4     5   ar
     7     4     1    1
     8     5     6   ar
     9     6     7   ar
    10     6    11    1
    11    11    12    2
    12    12    13    1
    13    13    18   ar
    14    13    14   ar
    15    14    15   ar
    16    15    16   ar
    17    16    17   ar
    18    17    18   ar
    19     1     2    2
    20     1    19    1
    21     1    28    1
    22    19    20    1
    23    20    21    1
    24    21    22    1
    25    22    27   ar
    26    22    23   ar
    27    23    24   ar
    28    24    25   ar
    29    25    26   ar
    30    26    27   ar
    31    28    29    1
    32    29    30    1
    33    30    31    1
    34    31    36   ar
    35    31    32   ar
    36    32    33   ar
    37    33    34   ar
    38    34    35   ar
    39    35    36   ar
@<TRIPOS>MOLECULE
ZINC17063684
 38 43 0 0 0
SMALL
GASTEIGER

@<TRIPOS>ATOM
      1 C          26.5252   40.3654   26.3219 C.3     1  UNL1        0.0000
      2 C          27.9528   39.8477   26.0022 C.3     1  UNL1        0.0000
      3 C          28.1091   39.9066   24.4537 C.3     1  UNL1        0.0000
      4 C          26.6545   40.0340   23.9852 C.3     1  UNL1        0.0003
      5 C          26.0883   41.0400   25.0029 C.3     1  UNL1        0.0000
      6 C          24.6035   41.1941   24.8032 C.3     1  UNL1        0.0000
      7 C          24.3391   41.6323   23.3457 C.3     1  UNL1        0.0003
      8 C          24.8563   40.5766   22.3856 C.3     1  UNL1        0.0038
      9 C          26.3753   40.3741   22.5536 C.3     1  UNL1        0.0046
     10 C          27.0990   41.6125   22.0408 C.3     1  UNL1        0.0254
     11 C          26.7103   41.8380   20.6027 C.2     1  UNL1       -0.0345
     12 C          25.5571   41.4805   20.1301 C.2     1  UNL1       -0.0467
     13 C          24.4920   40.7843   20.9333 C.3     1  UNL1        0.0150
     14 C          24.1948   39.4336   20.2659 C.3     1  UNL1        0.0062
     15 C          24.9720   39.3119   18.9573 C.3     1  UNL1        0.0307
     16 C          24.6859   40.5000   18.0405 C.3     1  UNL1        0.1282
     17 C          25.2559   41.7768   18.6704 C.3     1  UNL1        0.0517
     18 C          23.2121   41.6164   20.8314 C.3     1  UNL1        0.0040
     19 C          26.7806   42.4019   24.9797 C.3     1  UNL1        0.0000
     20 C          26.5706   41.4026   27.4419 C.3     1  UNL1        0.0000
     21 C          27.8178   41.1745   28.2981 C.3     1  UNL1        0.0000
     22 C          25.3210   41.2662   28.3143 C.3     1  UNL1        0.0000
     23 C          25.2561   39.8520   28.8946 C.3     1  UNL1        0.0000
     24 C          23.8452   39.2894   28.7106 C.3     1  UNL1        0.0000
     25 C          23.9236   37.9413   27.9912 C.3     1  UNL1        0.0000
     26 C          23.5792   38.1314   26.5128 C.3     1  UNL1        0.0000
     27 C          25.3406   37.3779   28.1166 C.3     1  UNL1        0.0000
     28 C          21.6747   40.5193   28.5752 C.3     1  UNL1        0.0000
     29 C          23.0120   40.2648   27.8769 C.3     1  UNL1        0.0000
     30 O          25.2984   40.2793   16.7690 O.3     1  UNL1       -0.2940
     31 P          24.5053   40.4281   15.3759 P.3     1  UNL1        0.3516
     32 O          23.1231   40.8859   15.6416 O.2     1  UNL1       -0.2539
     33 N          25.2908   41.5521   14.4003 N.3     1  UNL1       -0.1952
     34 C          26.4599   42.1185   15.0861 C.3     1  UNL1        0.0994
     35 C          25.1571   42.9088   14.9475 C.3     1  UNL1        0.0994
     36 N          24.4621   38.9388   14.5931 N.3     1  UNL1       -0.1952
     37 C          23.1132   38.3588   14.6389 C.3     1  UNL1        0.0994
     38 C          24.2314   37.8479   15.5495 C.3     1  UNL1        0.0994
@<TRIPOS>BOND
     1    28    29    1
     2    29    24    1
     3    24    23    1
     4    24    25    1
     5    23    22    1
     6    22    20    1
     7    20    21    1
     8    20     1    1
     9     1     5    1
    10     1     2    1
    11     2     3    1
    12     3     4    1
    13     4     9    1
    14     4     5    1
    15     5     6    1
    16     5    19    1
    17     6     7    1
    18     7     8    1
    19     8    13    1
    20     8     9    1
    21     9    10    1
    22    10    11    1
    23    11    12    2
    24    12    17    1
    25    12    13    1
    26    13    14    1
    27    13    18    1
    28    14    15    1
    29    15    16    1
    30    16    17    1
    31    16    30    1
    32    30    31    1
    33    31    32    2
    34    31    33    1
    35    31    36    1
    36    33    35    1
    37    33    34    1
    38    34    35    1
    39    36    38    1
    40    36    37    1
    41    37    38    1
    42    25    26    1
    43    25    27    1
@<TRIPOS>MOLECULE
ZINC25148759
 41 45 0 0 0
SMALL
GASTEIGER

@<TRIPOS>ATOM
      1 C          24.3615   39.0486   25.7150 C.2     1  UNL1        0.2668
      2 O          24.0372   39.2407   24.5586 O.2     1  UNL1       -0.2683
      3 N          23.5883   38.2872   26.5142 N.am    1  UNL1       -0.2633
      4 C          23.9657   38.0365   27.9135 C.3     1  UNL1        0.1549
      5 C          22.7596   38.3717   28.8054 C.3     1  UNL1        0.1274
      6 N          21.5865   37.6228   28.3354 N.4     1  UNL1        0.2804
      7 C          21.2086   38.0242   26.9738 C.3     1  UNL1        0.1274
      8 C          22.3479   37.6799   26.0085 C.3     1  UNL1        0.1549
      9 H          21.8393   36.6351   28.3087 H       1  UNL1        0.2069
     10 C          27.6194   39.9720   27.0786 C.ar    1  UNL1        0.0795
     11 C          26.7268   38.9753   26.6776 C.ar    1  UNL1        0.0398
     12 C          25.5984   39.6477   26.2415 C.ar    1  UNL1        0.1328
     13 N          25.8625   40.9787   26.3981 N.ar    1  UNL1       -0.2423
     14 N          27.0435   41.1302   26.8798 N.ar    1  UNL1       -0.1733
     15 C          29.9939   39.5759   26.4834 C.3     1  UNL1        0.0060
     16 C          29.0025   39.7527   27.6354 C.3     1  UNL1        0.0372
     17 C          29.4106   40.9625   28.4783 C.3     1  UNL1        0.0060
     18 C          29.0072   38.4970   28.5096 C.3     1  UNL1        0.0060
     19 C          24.9417   42.0675   26.0620 C.3     1  UNL1        0.1539
     20 C          24.8642   43.0339   27.2157 C.ar    1  UNL1        0.0021
     21 C          23.8438   42.9241   28.1418 C.ar    1  UNL1       -0.0023
     22 C          23.7759   43.8071   29.2033 C.ar    1  UNL1       -0.0003
     23 C          24.7255   44.8031   29.3357 C.ar    1  UNL1       -0.0000
     24 C          25.7428   44.9160   28.4066 C.ar    1  UNL1       -0.0003
     25 C          25.8106   44.0330   27.3452 C.ar    1  UNL1       -0.0023
     26 C          20.4573   37.7773   29.2623 C.3     1  UNL1        0.1381
     27 C          20.8517   38.7307   30.3920 C.3     1  UNL1        0.2034
     28 O          19.6998   39.4557   30.8274 O.3     1  UNL1       -0.3411
     29 C          18.9908   38.8311   31.8995 C.3     1  UNL1        0.1600
     30 C          19.3511   39.5037   33.1991 C.ar    1  UNL1        0.0087
     31 C          19.3107   40.8819   33.2984 C.ar    1  UNL1       -0.0016
     32 C          19.6364   41.4987   34.4919 C.ar    1  UNL1       -0.0002
     33 C          20.0122   40.7377   35.5832 C.ar    1  UNL1       -0.0000
     34 C          20.0580   39.3598   35.4821 C.ar    1  UNL1       -0.0002
     35 C          19.7272   38.7428   34.2902 C.ar    1  UNL1       -0.0016
     36 C          17.5080   38.9579   31.6624 C.ar    1  UNL1        0.0087
     37 C          16.9800   38.6692   30.4179 C.ar    1  UNL1       -0.0016
     38 C          15.6191   38.7808   30.2018 C.ar    1  UNL1       -0.0002
     39 C          14.7878   39.1907   31.2272 C.ar    1  UNL1       -0.0000
     40 C          15.3165   39.4848   32.4702 C.ar    1  UNL1       -0.0002
     41 C          16.6767   39.3682   32.6878 C.ar    1  UNL1       -0.0016
@<TRIPOS>UNITY_ATOM_ATTR
6 1
charge 1
@<TRIPOS>BOND
     1    15    16    1
     2    16    17    1
     3    16    18    1
     4    16    10    1
     5    10    14   ar
     6    10    11   ar
     7    11    12   ar
     8    12    13   ar
     9    12     1    1
    10    13    14   ar
    11    13    19    1
    12    19    20    1
    13    20    25   ar
    14    20    21   ar
    15    21    22   ar
    16    22    23   ar
    17    23    24   ar
    18    24    25   ar
    19     1     2    2
    20     1     3   am
    21     3     8    1
    22     3     4    1
    23     4     5    1
    24     5     6    1
    25     6     7    1
    26     6    26    1
    27     7     8    1
    28    26    27    1
    29    27    28    1
    30    28    29    1
    31    29    30    1
    32    29    36    1
    33    30    35   ar
    34    30    31   ar
    35    31    32   ar
    36    32    33   ar
    37    33    34   ar
    38    34    35   ar
    39    36    41   ar
    40    36    37   ar
    41    37    38   ar
    42    38    39   ar
    43    39    40   ar
    44    40    41   ar
    45     6     9    1
@<TRIPOS>MOLECULE
ZINC25154569
 35 38 0 0 0
SMALL
GASTEIGER

@<TRIPOS>ATOM
      1 C          25.7601   36.1718   30.2463 C.ar    1  UNL1        0.0772
      2 C          26.1993   36.8824   29.1215 C.ar    1  UNL1        0.0080
      3 C          25.3894   37.8078   28.5285 C.ar    1  UNL1        0.0190
      4 C          24.1202   38.0536   29.0376 C.ar    1  UNL1        0.0795
      5 C          23.6628   37.3503   30.1669 C.ar    1  UNL1        0.0994
      6 C          24.4909   36.4059   30.7702 C.ar    1  UNL1        0.0271
      7 N          22.4053   37.7939   30.4325 N.ar    1  UNL1       -0.2211
      8 C          22.0686   38.7069   29.5551 C.ar    1  UNL1        0.1718
      9 N          23.0936   38.9034   28.6723 N.ar    1  UNL1       -0.3023
     10 C          26.6444   35.1739   30.8778 C.2     1  UNL1        0.3413
     11 O          27.6991   35.5220   31.3704 O.2     1  UNL1       -0.2449
     12 O          26.2824   33.8763   30.9083 O.3     1  UNL1       -0.4454
     13 C          27.1727   33.0844   28.7845 C.3     1  UNL1        0.0513
     14 C          27.1965   32.9226   30.3057 C.3     1  UNL1        0.2089
     15 C          23.1020   39.8410   27.5466 C.3     1  UNL1        0.1347
     16 C          23.6706   41.1618   27.9974 C.ar    1  UNL1        0.0004
     17 C          25.0395   41.3277   28.0954 C.ar    1  UNL1       -0.0024
     18 C          25.5612   42.5405   28.5051 C.ar    1  UNL1        0.0036
     19 C          24.7138   43.5848   28.8248 C.ar    1  UNL1        0.0714
     20 C          23.3448   43.4173   28.7319 C.ar    1  UNL1        0.0036
     21 C          22.8232   42.2058   28.3184 C.ar    1  UNL1       -0.0024
     22 C          25.2824   44.9058   29.2751 C.3     1  UNL1        0.4186
     23 F          24.5638   45.9493   28.6820 F       1  UNL1       -0.1659
     24 F          25.1852   45.0050   30.6672 F       1  UNL1       -0.1659
     25 F          26.6259   44.9893   28.8944 F       1  UNL1       -0.1659
     26 S          20.5245   39.5548   29.5185 S.3     1  UNL1       -0.0725
     27 C          19.4495   38.2808   30.2237 C.3     1  UNL1        0.0920
     28 C          18.7657   38.8239   31.4518 C.ar    1  UNL1       -0.0013
     29 C          19.5093   39.1702   32.5611 C.ar    1  UNL1       -0.0027
     30 C          18.8835   39.6730   33.6879 C.ar    1  UNL1       -0.0003
     31 C          17.5081   39.8233   33.7143 C.ar    1  UNL1        0.0007
     32 C          16.7520   39.4761   32.6143 C.ar    1  UNL1        0.0100
     33 C          17.3776   38.9725   31.4718 C.ar    1  UNL1        0.0653
     34 C          16.5988   38.6096   30.3261 C.1     1  UNL1        0.1001
     35 N          15.9812   38.3217   29.4173 N.1     1  UNL1       -0.1908
@<TRIPOS>BOND
     1    13    14    1
     2    14    12    1
     3    12    10    1
     4    10    11    2
     5    10     1    1
     6     1     6   ar
     7     1     2   ar
     8     2     3   ar
     9     3     4   ar
    10     4     9   ar
    11     4     5   ar
    12     5     6   ar
    13     5     7   ar
    14     7     8   ar
    15     8     9   ar
    16     8    26    1
    17     9    15    1
    18    15    16    1
    19    16    21   ar
    20    16    17   ar
    21    17    18   ar
    22    18    19   ar
    23    19    20   ar
    24    19    22    1
    25    20    21   ar
    26    22    23    1
    27    22    24    1
    28    22    25    1
    29    26    27    1
    30    27    28    1
    31    28    33   ar
    32    28    29   ar
    33    29    30   ar
    34    30    31   ar
    35    31    32   ar
    36    32    33   ar
    37    33    34    1
    38    34    35    3
@<TRIPOS>MOLECULE
ZINC03288444
 36 40 0 0 0
SMALL
GASTEIGER

@<TRIPOS>ATOM
      1 C          18.2167   38.7205   30.4615 C.2     1  UNL1        0.3764
      2 O          18.8365   38.7226   31.5074 O.2     1  UNL1       -0.2414
      3 C          16.7499   38.6617   30.4776 C.ar    1  UNL1        0.2173
      4 C          15.9477   39.3716   31.3139 C.ar    1  UNL1        0.0327
      5 C          14.5758   38.9972   30.9736 C.ar    1  UNL1        0.0346
      6 C          13.3176   39.3666   31.4558 C.ar    1  UNL1        0.0028
      7 C          12.1939   38.8171   30.9065 C.ar    1  UNL1        0.0002
      8 C          12.2947   37.8912   29.8768 C.ar    1  UNL1        0.0031
      9 C          13.5259   37.5179   29.3831 C.ar    1  UNL1        0.0375
     10 C          14.6837   38.0631   29.9264 C.ar    1  UNL1        0.1453
     11 O          15.9943   37.8941   29.6644 O.2     1  UNL1       -0.4472
     12 C          16.3838   40.3470   32.3766 C.3     1  UNL1        0.0871
     13 S          16.2889   39.5508   34.0038 S.3     1  UNL1       -0.1362
     14 C          17.8519   40.0035   34.8056 C.3     1  UNL1        0.0480
     15 C          18.4220   41.2576   34.1399 C.3     1  UNL1        0.0108
     16 C          19.7403   41.6393   34.8161 C.3     1  UNL1        0.0009
     17 C          20.7383   40.4883   34.6744 C.3     1  UNL1        0.0001
     18 C          20.1681   39.2342   35.3400 C.3     1  UNL1        0.0009
     19 C          18.8498   38.8524   34.6638 C.3     1  UNL1        0.0108
     20 O          18.8766   38.7723   29.2866 O.3     1  UNL1       -0.4347
     21 C          20.2267   38.2384   29.2646 C.3     1  UNL1        0.2771
     22 C          20.9439   38.7362   28.0363 C.2     1  UNL1        0.2182
     23 O          20.7645   38.1921   26.9667 O.2     1  UNL1       -0.2873
     24 C          22.8038   43.4175   28.8043 C.3     1  UNL1        0.0504
     25 C          22.6627   41.9530   28.4783 C.ar    1  UNL1        0.0415
     26 C          21.5193   41.2499   28.5317 C.ar    1  UNL1        0.0172
     27 C          21.8573   39.8766   28.1336 C.ar    1  UNL1        0.0515
     28 C          23.2154   39.8799   27.8755 C.ar    1  UNL1        0.0443
     29 N          23.6781   41.1282   28.0806 N.ar    1  UNL1       -0.3134
     30 C          24.0352   38.6938   27.4371 C.3     1  UNL1        0.0505
     31 C          25.0126   41.5241   27.9165 C.ar    1  UNL1        0.0634
     32 C          25.9065   41.4113   28.9728 C.ar    1  UNL1        0.0175
     33 C          27.2221   41.7978   28.8066 C.ar    1  UNL1        0.0015
     34 C          27.6465   42.3069   27.5931 C.ar    1  UNL1        0.0001
     35 C          26.7574   42.4250   26.5406 C.ar    1  UNL1        0.0015
     36 C          25.4419   42.0353   26.6991 C.ar    1  UNL1        0.0175
@<TRIPOS>BOND
     1    24    25    1
     2    25    29   ar
     3    25    26   ar
     4    26    27   ar
     5    27    28   ar
     6    27    22    1
     7    28    29   ar
     8    28    30    1
     9    29    31    1
    10    31    36   ar
    11    31    32   ar
    12    32    33   ar
    13    33    34   ar
    14    34    35   ar
    15    35    36   ar
    16    22    23    2
    17    22    21    1
    18    21    20    1
    19    20     1    1
    20     1     2    2
    21     1     3    1
    22     3    11   ar
    23     3     4   ar
    24     4     5   ar
    25     4    12    1
    26     5    10   ar
    27     5     6   ar
    28     6     7   ar
    29     7     8   ar
    30     8     9   ar
    31     9    10   ar
    32    10    11   ar
    33    12    13    1
    34    13    14    1
    35    14    19    1
    36    14    15    1
    37    15    16    1
    38    16    17    1
    39    17    18    1
    40    18    19    1
@<TRIPOS>MOLECULE
ZINC12639325
 36 40 0 0 0
SMALL
GASTEIGER

@<TRIPOS>ATOM
      1 C          22.0940   39.2880   28.4090 C.3     1  UNL1        0.1501
      2 N          24.5348   39.5534   28.7109 N.am    1  UNL1       -0.2706
      3 C          23.3861   38.9802   29.1211 C.2     1  UNL1        0.2376
      4 O          23.3922   38.2166   30.0633 O.2     1  UNL1       -0.2739
      5 C          24.5113   40.5632   27.6496 C.3     1  UNL1        0.1205
      6 C          24.4750   44.4618   29.3951 C.ar    1  UNL1       -0.0000
      7 C          23.2948   43.8879   28.9608 C.ar    1  UNL1       -0.0003
      8 C          23.3065   42.6265   28.3957 C.ar    1  UNL1       -0.0026
      9 C          24.4985   41.9387   28.2653 C.ar    1  UNL1       -0.0023
     10 C          25.6780   42.5101   28.7048 C.ar    1  UNL1       -0.0026
     11 C          25.6669   43.7738   29.2652 C.ar    1  UNL1       -0.0003
     12 C          25.8069   39.1669   29.3262 C.3     1  UNL1        0.1205
     13 C          26.1938   37.7883   28.8561 C.ar    1  UNL1       -0.0023
     14 C          26.5008   36.8047   29.7776 C.ar    1  UNL1       -0.0026
     15 C          26.8511   35.5389   29.3466 C.ar    1  UNL1       -0.0003
     16 C          26.9041   35.2594   27.9938 C.ar    1  UNL1       -0.0000
     17 C          26.6026   36.2446   27.0722 C.ar    1  UNL1       -0.0003
     18 C          26.2473   37.5090   27.5033 C.ar    1  UNL1       -0.0026
     19 S          20.9734   37.8684   28.5490 S.3     1  UNL1       -0.0642
     20 C          19.8356   38.3460   29.8068 C.ar    1  UNL1        0.2105
     21 N          20.1624   38.7540   31.0376 N.ar    1  UNL1       -0.2050
     22 C          19.0774   39.0308   31.7153 C.ar    1  UNL1        0.1424
     23 N          18.0153   38.8021   30.9196 N.ar    1  UNL1       -0.2142
     24 N          18.5279   38.3546   29.6911 N.ar    1  UNL1       -0.1379
     25 C          16.6651   38.9712   31.2536 C.ar    1  UNL1        0.0842
     26 C          15.6771   38.6986   30.3167 C.ar    1  UNL1        0.0192
     27 C          14.3471   38.8662   30.6490 C.ar    1  UNL1        0.0015
     28 C          13.9988   39.3055   31.9131 C.ar    1  UNL1        0.0001
     29 C          14.9803   39.5783   32.8482 C.ar    1  UNL1        0.0015
     30 C          16.3121   39.4122   32.5221 C.ar    1  UNL1        0.0192
     31 C          19.0257   39.5207   33.1395 C.3     1  UNL1        0.0587
     32 C          19.6424   40.9185   33.2207 C.3     1  UNL1        0.0075
     33 C          19.5899   41.4157   34.6667 C.3     1  UNL1        0.0004
     34 C          20.3764   40.4583   35.5642 C.3     1  UNL1        0.0000
     35 C          19.7597   39.0605   35.4830 C.3     1  UNL1        0.0004
     36 C          19.8122   38.5632   34.0370 C.3     1  UNL1        0.0075
@<TRIPOS>BOND
     1     6    11   ar
     2     6     7   ar
     3     7     8   ar
     4     8     9   ar
     5     9    10   ar
     6     9     5    1
     7    10    11   ar
     8     5     2    1
     9     2    12    1
    10     2     3   am
    11    12    13    1
    12    13    18   ar
    13    13    14   ar
    14    14    15   ar
    15    15    16   ar
    16    16    17   ar
    17    17    18   ar
    18     3     4    2
    19     3     1    1
    20     1    19    1
    21    19    20    1
    22    20    24   ar
    23    20    21   ar
    24    21    22   ar
    25    22    23   ar
    26    22    31    1
    27    23    24   ar
    28    23    25    1
    29    25    30   ar
    30    25    26   ar
    31    26    27   ar
    32    27    28   ar
    33    28    29   ar
    34    29    30   ar
    35    31    36    1
    36    31    32    1
    37    32    33    1
    38    33    34    1
    39    34    35    1
    40    35    36    1
@<TRIPOS>MOLECULE
ZINC13849250
 33 36 0 0 0
SMALL
GASTEIGER

@<TRIPOS>ATOM
      1 C          14.3377   38.0768   29.5340 C.ar    1  UNL1        0.1885
      2 N          15.0019   37.9876   28.4166 N.ar    1  UNL1       -0.1290
      3 N          14.2226   37.6042   27.4693 N.ar    1  UNL1       -0.1223
      4 C          13.0081   37.4266   27.9354 C.ar    1  UNL1        0.1936
      5 N          13.0449   37.7179   29.2689 N.ar    1  UNL1       -0.2867
      6 C          14.8925   38.4925   30.8720 C.3     1  UNL1        0.2703
      7 O          16.3202   38.5074   30.8119 O.3     1  UNL1       -0.4673
      8 C          20.4941   39.5482   33.1179 C.3     1  UNL1        0.0320
      9 C          19.0046   39.7083   32.9542 C.ar    1  UNL1       -0.0086
     10 C          18.3436   39.0280   31.9498 C.ar    1  UNL1        0.0335
     11 C          16.9724   39.1761   31.7993 C.ar    1  UNL1        0.1386
     12 C          16.2678   40.0069   32.6582 C.ar    1  UNL1        0.0335
     13 C          16.9325   40.6854   33.6613 C.ar    1  UNL1       -0.0086
     14 C          18.3001   40.5367   33.8096 C.ar    1  UNL1        0.0499
     15 CL         19.1332   41.3905   35.0710 Cl      1  UNL1       -0.0829
     16 C          16.1674   41.5876   34.5949 C.3     1  UNL1        0.0320
     17 C          11.9304   37.6607   30.2179 C.3     1  UNL1        0.1357
     18 C          11.4829   39.0605   30.5520 C.2     1  UNL1       -0.0017
     19 C          11.8145   39.5976   31.6999 C.2     1  UNL1       -0.0029
     20 S          11.5988   36.9048   27.0156 S.3     1  UNL1       -0.0692
     21 C          10.9046   38.5143   26.5641 C.3     1  UNL1        0.1112
     22 C          10.7124   38.5775   25.0708 C.ar    1  UNL1        0.0774
     23 C          10.3741   37.4567   24.3799 C.ar    1  UNL1        0.0524
     24 S          10.2854   38.1084   22.7168 S.2     1  UNL1       -0.0662
     25 C          10.7075   39.7980   23.1223 C.ar    1  UNL1        0.1112
     26 N          10.8661   39.7158   24.4358 N.ar    1  UNL1       -0.2417
     27 C          10.8384   40.9717   22.2329 C.ar    1  UNL1        0.0344
     28 C          11.6085   40.8891   21.0719 C.ar    1  UNL1        0.0029
     29 C          11.7266   41.9878   20.2463 C.ar    1  UNL1        0.0001
     30 C          11.0835   43.1706   20.5662 C.ar    1  UNL1        0.0009
     31 C          10.3187   43.2604   21.7149 C.ar    1  UNL1        0.0115
     32 C          10.1875   42.1663   22.5478 C.ar    1  UNL1        0.0596
     33 CL          9.2214   42.2781   23.9858 Cl      1  UNL1       -0.0822
@<TRIPOS>BOND
     1     8     9    1
     2     9    14   ar
     3     9    10   ar
     4    10    11   ar
     5    11    12   ar
     6    11     7    1
     7    12    13   ar
     8    13    14   ar
     9    13    16    1
    10    14    15    1
    11     7     6    1
    12     6     1    1
    13     1     5   ar
    14     1     2   ar
    15     2     3   ar
    16     3     4   ar
    17     4     5   ar
    18     4    20    1
    19     5    17    1
    20    17    18    1
    21    18    19    2
    22    20    21    1
    23    21    22    1
    24    22    26   ar
    25    22    23   ar
    26    23    24   ar
    27    24    25   ar
    28    25    26   ar
    29    25    27    1
    30    27    32   ar
    31    27    28   ar
    32    28    29   ar
    33    29    30   ar
    34    30    31   ar
    35    31    32   ar
    36    32    33    1
@<TRIPOS>MOLECULE
ZINC10334912
 34 37 0 0 0
SMALL
GASTEIGER

@<TRIPOS>ATOM
      1 N          13.4875   38.0062   30.0494 N.ar    1  UNL1       -0.2896
      2 C          14.8077   38.3474   29.9450 C.ar    1  UNL1        0.1442
      3 N          15.1528   38.1858   28.6990 N.ar    1  UNL1       -0.1328
      4 N          14.1465   37.7766   28.0120 N.ar    1  UNL1       -0.1224
      5 C          13.0972   37.6490   28.7907 C.ar    1  UNL1        0.1936
      6 C          12.6617   38.0260   31.2593 C.3     1  UNL1        0.1356
      7 C          10.9682   39.7470   30.8971 C.2     1  UNL1       -0.0029
      8 C          12.1009   39.4100   31.4621 C.2     1  UNL1       -0.0017
      9 S          11.4898   37.1165   28.3037 S.3     1  UNL1       -0.0673
     10 C          11.8201   36.6496   26.5864 C.3     1  UNL1        0.1340
     11 C          10.6167   36.9707   25.7381 C.2     1  UNL1        0.1843
     12 O           9.6051   36.3106   25.8463 O.2     1  UNL1       -0.2904
     13 C          10.6689   38.0841   24.7797 C.ar    1  UNL1        0.0356
     14 C          10.5804   37.8310   23.4056 C.ar    1  UNL1        0.0029
     15 C          10.6239   38.8715   22.5140 C.ar    1  UNL1        0.0001
     16 C          10.7673   40.1812   22.9745 C.ar    1  UNL1        0.0000
     17 C          10.8617   40.4353   24.3436 C.ar    1  UNL1        0.0001
     18 C          10.8133   39.3986   25.2394 C.ar    1  UNL1        0.0029
     19 C          10.8200   41.3039   22.0082 C.ar    1  UNL1        0.0000
     20 C          11.4971   41.1550   20.7985 C.ar    1  UNL1        0.0000
     21 C          11.5390   42.2023   19.9009 C.ar    1  UNL1        0.0000
     22 C          10.9193   43.4015   20.2036 C.ar    1  UNL1        0.0000
     23 C          10.2504   43.5570   21.4046 C.ar    1  UNL1        0.0000
     24 C          10.1977   42.5151   22.3079 C.ar    1  UNL1        0.0000
     25 C          15.6991   38.8201   31.0644 C.3     1  UNL1        0.0706
     26 C          17.1638   38.6672   30.6492 C.3     1  UNL1        0.0352
     27 C          18.0554   39.1124   31.7797 C.ar    1  UNL1       -0.0111
     28 C          17.5003   39.6370   32.9321 C.ar    1  UNL1       -0.0026
     29 C          18.3172   40.0451   33.9694 C.ar    1  UNL1        0.0111
     30 C          19.6914   39.9287   33.8552 C.ar    1  UNL1        0.0585
     31 C          20.2472   39.4040   32.7025 C.ar    1  UNL1        0.0225
     32 C          19.4287   38.9907   31.6664 C.ar    1  UNL1        0.0545
     33 CL         20.1251   38.3258   30.2220 Cl      1  UNL1       -0.0825
     34 CL         20.7175   40.4418   35.1581 Cl      1  UNL1       -0.0822
@<TRIPOS>BOND
     1     7     8    2
     2     8     6    1
     3     6     1    1
     4     1     5   ar
     5     1     2   ar
     6     2     3   ar
     7     2    25    1
     8     3     4   ar
     9     4     5   ar
    10     5     9    1
    11     9    10    1
    12    10    11    1
    13    11    12    2
    14    11    13    1
    15    13    18   ar
    16    13    14   ar
    17    14    15   ar
    18    15    16   ar
    19    16    17   ar
    20    16    19    1
    21    17    18   ar
    22    19    24   ar
    23    19    20   ar
    24    20    21   ar
    25    21    22   ar
    26    22    23   ar
    27    23    24   ar
    28    25    26    1
    29    26    27    1
    30    27    32   ar
    31    27    28   ar
    32    28    29   ar
    33    29    30   ar
    34    30    31   ar
    35    30    34    1
    36    31    32   ar
    37    32    33    1
@<TRIPOS>MOLECULE
ZINC09164660
 35 38 0 0 0
SMALL
GASTEIGER

@<TRIPOS>ATOM
      1 C          21.9684   38.3699   29.2967 C.ar    1  UNL1        0.0392
      2 C          20.7793   38.8799   29.7841 C.ar    1  UNL1        0.1019
      3 N          20.8585   38.8950   31.1282 N.ar    1  UNL1       -0.2282
      4 N          22.0998   38.3952   31.5315 N.ar    1  UNL1       -0.1651
      5 C          22.7968   38.0615   30.4685 C.ar    1  UNL1        0.1028
      6 N          24.3685   40.1068   25.5091 N.am    1  UNL1       -0.2441
      7 C          23.5996   39.0903   25.8614 C.2     1  UNL1        0.2595
      8 O          23.3079   38.2074   25.0756 O.2     1  UNL1       -0.2690
      9 C          23.1172   39.0767   27.2543 C.2     1  UNL1        0.0850
     10 C          22.3280   38.1707   27.8887 C.2     1  UNL1        0.0142
     11 S          23.8513   40.5827   27.8779 S.3     1  UNL1       -0.0604
     12 C          24.6848   41.0859   26.3811 C.2     1  UNL1        0.1212
     13 S          25.6517   42.4739   26.1173 S.2     1  UNL1       -0.0272
     14 C          24.8835   40.1741   24.1392 C.3     1  UNL1        0.0994
     15 C          24.0183   41.1302   23.3155 C.3     1  UNL1        0.0203
     16 C          23.1935   40.3300   22.3056 C.3     1  UNL1        0.0017
     17 C          22.4752   41.2921   21.3573 C.3     1  UNL1        0.0001
     18 C          24.9179   42.1184   22.5706 C.3     1  UNL1        0.0017
     19 C          26.2637   41.4557   22.2694 C.3     1  UNL1        0.0001
     20 C          25.9268   43.1059   20.4238 C.3     1  UNL1        0.0000
     21 C          26.9372   42.1772   21.1002 C.3     1  UNL1        0.0000
     22 C          24.1629   37.4866   30.4551 C.ar    1  UNL1        0.0224
     23 C          24.3834   36.1959   30.9351 C.ar    1  UNL1        0.0018
     24 C          25.6558   35.6617   30.9178 C.ar    1  UNL1        0.0032
     25 C          26.7158   36.4061   30.4341 C.ar    1  UNL1        0.0369
     26 C          26.5060   37.6932   29.9590 C.ar    1  UNL1        0.1388
     27 C          25.2316   38.2363   29.9682 C.ar    1  UNL1        0.0385
     28 O          27.5512   38.4212   29.4849 O.3     1  UNL1       -0.4714
     29 C          27.3462   39.1296   28.2609 C.3     1  UNL1        0.2525
     30 C          19.8503   39.3435   31.9910 C.ar    1  UNL1        0.0828
     31 C          20.1739   40.1250   33.0923 C.ar    1  UNL1        0.0191
     32 C          19.1772   40.5689   33.9390 C.ar    1  UNL1        0.0015
     33 C          17.8591   40.2284   33.6960 C.ar    1  UNL1        0.0001
     34 C          17.5342   39.4464   32.6028 C.ar    1  UNL1        0.0015
     35 C          18.5258   39.0030   31.7500 C.ar    1  UNL1        0.0191
@<TRIPOS>BOND
     1    20    21    1
     2    21    19    1
     3    19    18    1
     4    18    15    1
     5    15    16    1
     6    15    14    1
     7    16    17    1
     8    14     6    1
     9     6    12    1
    10     6     7   am
    11     7     8    2
    12     7     9    1
    13     9    10    2
    14     9    11    1
    15    10     1    1
    16     1     5   ar
    17     1     2   ar
    18     2     3   ar
    19     3     4   ar
    20     3    30    1
    21     4     5   ar
    22     5    22    1
    23    22    27   ar
    24    22    23   ar
    25    23    24   ar
    26    24    25   ar
    27    25    26   ar
    28    26    27   ar
    29    26    28    1
    30    28    29    1
    31    30    35   ar
    32    30    31   ar
    33    31    32   ar
    34    32    33   ar
    35    33    34   ar
    36    34    35   ar
    37    11    12    1
    38    12    13    2
@<TRIPOS>MOLECULE
ZINC08671281
 35 38 0 0 0
SMALL
GASTEIGER

@<TRIPOS>ATOM
      1 C          20.2021   37.9547   29.2346 C.ar    1  UNL1        0.1854
      2 N          20.4874   36.6976   28.9853 N.ar    1  UNL1       -0.1266
      3 N          21.2201   36.6139   27.9329 N.ar    1  UNL1       -0.1221
      4 C          21.4434   37.8110   27.4419 C.ar    1  UNL1        0.1938
      5 N          20.8008   38.7069   28.2506 N.ar    1  UNL1       -0.2850
      6 C          17.3224   38.9503   31.2572 C.ar    1  UNL1        0.1954
      7 N          18.0671   38.4988   30.2666 N.ar    1  UNL1       -0.2173
      8 C          19.3883   38.4650   30.3579 C.ar    1  UNL1        0.1258
      9 C          19.9920   38.9032   31.5075 C.ar    1  UNL1        0.0606
     10 S          18.5629   39.3855   32.4681 S.2     1  UNL1       -0.0465
     11 C          12.5111   38.2348   30.3278 C.3     1  UNL1        0.0540
     12 C          13.8046   38.7347   30.9178 C.ar    1  UNL1        0.0808
     13 C          13.9256   39.6686   31.9530 C.ar    1  UNL1        0.0396
     14 C          15.2435   39.8542   32.1959 C.ar    1  UNL1        0.1574
     15 N          15.9355   39.0595   31.3380 N.ar    1  UNL1       -0.2030
     16 N          15.0059   38.3742   30.5450 N.ar    1  UNL1       -0.1678
     17 C          15.8367   40.7751   33.2309 C.3     1  UNL1        0.4350
     18 F          14.8167   41.5227   33.8293 F       1  UNL1       -0.1644
     19 F          16.4940   40.0181   34.2066 F       1  UNL1       -0.1644
     20 F          16.7500   41.6394   32.6176 F       1  UNL1       -0.1644
     21 C          20.7629   40.1640   28.1034 C.3     1  UNL1        0.1360
     22 C          21.8846   40.7788   28.9003 C.2     1  UNL1       -0.0017
     23 C          22.3470   41.9608   28.5761 C.2     1  UNL1       -0.0029
     24 S          22.3942   38.1920   26.0081 S.3     1  UNL1       -0.0708
     25 C          23.8043   39.0255   26.7784 C.3     1  UNL1        0.0913
     26 C          24.6289   38.0189   27.5384 C.ar    1  UNL1       -0.0109
     27 C          25.5940   37.2785   26.8814 C.ar    1  UNL1       -0.0034
     28 C          26.3506   36.3555   27.5785 C.ar    1  UNL1       -0.0004
     29 C          26.1424   36.1728   28.9330 C.ar    1  UNL1        0.0038
     30 C          25.1775   36.9129   29.5900 C.ar    1  UNL1        0.0711
     31 C          24.4243   37.8399   28.8936 C.ar    1  UNL1        0.0005
     32 C          24.9508   36.7141   31.0664 C.3     1  UNL1        0.4186
     33 F          23.9573   37.5943   31.5084 F       1  UNL1       -0.1659
     34 F          24.5449   35.3962   31.3026 F       1  UNL1       -0.1659
     35 F          26.1397   36.9671   31.7590 F       1  UNL1       -0.1659
@<TRIPOS>BOND
     1    11    12    1
     2    12    16   ar
     3    12    13   ar
     4    13    14   ar
     5    14    15   ar
     6    14    17    1
     7    15    16   ar
     8    15     6    1
     9     6    10   ar
    10     6     7   ar
    11     7     8   ar
    12     8     9   ar
    13     8     1    1
    14     9    10   ar
    15     1     5   ar
    16     1     2   ar
    17     2     3   ar
    18     3     4   ar
    19     4     5   ar
    20     4    24    1
    21     5    21    1
    22    21    22    1
    23    22    23    2
    24    24    25    1
    25    25    26    1
    26    26    31   ar
    27    26    27   ar
    28    27    28   ar
    29    28    29   ar
    30    29    30   ar
    31    30    31   ar
    32    30    32    1
    33    32    33    1
    34    32    34    1
    35    32    35    1
    36    17    18    1
    37    17    19    1
    38    17    20    1
@<TRIPOS>MOLECULE
ZINC11115065
 35 38 0 0 0
SMALL
GASTEIGER

@<TRIPOS>ATOM
      1 S          22.3079   37.8151   29.0451 S.3     1  UNL1       -0.0687
      2 C          23.8978   38.5712   29.1178 C.ar    1  UNL1        0.1932
      3 N          24.7448   38.5130   30.1191 N.ar    1  UNL1       -0.1224
      4 N          25.8064   39.1784   29.8322 N.ar    1  UNL1       -0.1328
      5 C          25.7013   39.6966   28.6413 C.ar    1  UNL1        0.1438
      6 N          24.4798   39.3328   28.1454 N.ar    1  UNL1       -0.2957
      7 C          23.9145   39.6846   26.8404 C.3     1  UNL1        0.0886
      8 C          24.2075   41.1553   26.5374 C.3     1  UNL1        0.0246
      9 C          24.5444   38.8056   25.7581 C.3     1  UNL1        0.0246
     10 C          26.7322   40.5450   27.9424 C.3     1  UNL1        0.0706
     11 C          27.2340   41.6287   28.8987 C.3     1  UNL1        0.0343
     12 C          26.5241   42.9253   28.6055 C.ar    1  UNL1       -0.0217
     13 C          26.9269   43.7080   27.5396 C.ar    1  UNL1       -0.0034
     14 C          26.2759   44.8970   27.2700 C.ar    1  UNL1        0.0111
     15 C          25.2212   45.3041   28.0675 C.ar    1  UNL1        0.0577
     16 C          24.8191   44.5209   29.1347 C.ar    1  UNL1        0.0111
     17 C          25.4706   43.3319   29.4030 C.ar    1  UNL1       -0.0034
     18 CL         24.4034   46.7977   27.7299 Cl      1  UNL1       -0.0822
     19 C          21.3482   39.0078   30.0110 C.3     1  UNL1        0.1164
     20 C          20.9927   40.2081   29.1313 C.3     1  UNL1        0.0204
     21 C          20.0831   38.3535   30.5033 C.2     1  UNL1        0.1841
     22 O          19.7635   37.2593   30.0856 O.2     1  UNL1       -0.2904
     23 N          17.4924   39.9220   32.4500 N.ar    1  UNL1       -0.3305
     24 C          17.9166   39.2750   31.3477 C.ar    1  UNL1        0.0402
     25 C          19.2665   39.0156   31.4537 C.ar    1  UNL1        0.0486
     26 C          19.6889   39.5606   32.7590 C.ar    1  UNL1        0.0197
     27 C          18.5358   40.1199   33.3317 C.ar    1  UNL1        0.0597
     28 C          18.6206   40.7231   34.5823 C.ar    1  UNL1        0.0172
     29 C          19.8262   40.7573   35.2492 C.ar    1  UNL1        0.0015
     30 C          20.9648   40.2072   34.6797 C.ar    1  UNL1        0.0001
     31 C          20.9018   39.6098   33.4391 C.ar    1  UNL1        0.0016
     32 C          17.0482   38.8928   30.1770 C.3     1  UNL1        0.0501
     33 C          16.1128   40.3567   32.6813 C.3     1  UNL1        0.1057
     34 C          14.0206   39.1032   32.1390 C.3     1  UNL1        0.0021
     35 C          15.2512   39.1464   33.0471 C.3     1  UNL1        0.0245
@<TRIPOS>BOND
     1    34    35    1
     2    35    33    1
     3    33    23    1
     4    23    27   ar
     5    23    24   ar
     6    24    25   ar
     7    24    32    1
     8    25    26   ar
     9    25    21    1
    10    26    31   ar
    11    26    27   ar
    12    27    28   ar
    13    28    29   ar
    14    29    30   ar
    15    30    31   ar
    16    21    22    2
    17    21    19    1
    18    19    20    1
    19    19     1    1
    20     1     2    1
    21     2     6   ar
    22     2     3   ar
    23     3     4   ar
    24     4     5   ar
    25     5     6   ar
    26     5    10    1
    27     6     7    1
    28     7     8    1
    29     7     9    1
    30    10    11    1
    31    11    12    1
    32    12    17   ar
    33    12    13   ar
    34    13    14   ar
    35    14    15   ar
    36    15    16   ar
    37    15    18    1
    38    16    17   ar
@<TRIPOS>MOLECULE
ZINC28793222
 35 38 0 0 0
SMALL
GASTEIGER

@<TRIPOS>ATOM
      1 N          25.6638   39.4338   28.9725 N.ar    1  UNL1       -0.1776
      2 C          26.6855   38.7577   28.4070 C.ar    1  UNL1        0.1847
      3 S          27.8077   39.3791   27.2731 S.2     1  UNL1       -0.0110
      4 N          26.6579   37.5019   28.8966 N.ar    1  UNL1       -0.2940
      5 C          25.6122   37.4061   29.7814 C.ar    1  UNL1        0.1467
      6 N          25.0079   38.5490   29.8395 N.ar    1  UNL1       -0.1494
      7 C          25.3093   40.8345   28.7298 C.3     1  UNL1        0.2439
      8 N          24.3914   40.9160   27.5858 N.4     1  UNL1        0.3055
      9 C          24.9802   41.7019   26.4932 C.3     1  UNL1        0.1699
     10 H          24.2349   39.9687   27.2415 H       1  UNL1        0.2097
     11 C          23.0924   41.4694   27.9916 C.3     1  UNL1        0.1732
     12 C          21.0598   36.8661   28.2989 C.3     1  UNL1        0.0727
     13 C          21.2964   38.3323   28.5544 C.ar    1  UNL1        0.1293
     14 C          20.5841   39.1184   29.4133 C.ar    1  UNL1        0.1088
     15 C          21.1889   40.4555   29.3195 C.ar    1  UNL1        0.0481
     16 C          22.1820   40.3490   28.4239 C.ar    1  UNL1        0.1777
     17 O          22.2393   39.0841   27.9786 O.2     1  UNL1       -0.4560
     18 C          19.4505   38.7115   30.2602 C.2     1  UNL1        0.3441
     19 O          19.6188   38.5154   31.4478 O.2     1  UNL1       -0.2448
     20 O          18.2262   38.5565   29.7184 O.3     1  UNL1       -0.4413
     21 C          17.0879   38.7133   30.6062 C.3     1  UNL1        0.2560
     22 C          25.2306   36.1718   30.5574 C.3     1  UNL1        0.0986
     23 C          26.0196   36.1211   31.8404 C.ar    1  UNL1        0.0149
     24 C          27.2543   36.6145   32.1032 C.ar    1  UNL1        0.0031
     25 C          27.7867   36.4499   33.3682 C.ar    1  UNL1        0.0072
     26 C          27.0582   35.7999   34.3084 C.ar    1  UNL1        0.0351
     27 S          25.5672   35.4021   33.4106 S.2     1  UNL1       -0.0903
     28 C          27.5884   36.4253   28.5488 C.3     1  UNL1        0.1138
     29 C          27.0275   35.6275   27.3698 C.3     1  UNL1        0.0509
     30 C          27.0948   34.1548   27.6824 C.ar    1  UNL1       -0.0202
     31 C          27.2020   33.7307   28.9937 C.ar    1  UNL1       -0.0042
     32 C          27.2642   32.3798   29.2803 C.ar    1  UNL1       -0.0003
     33 C          27.2192   31.4530   28.2557 C.ar    1  UNL1       -0.0000
     34 C          27.1115   31.8771   26.9444 C.ar    1  UNL1       -0.0003
     35 C          27.0499   33.2280   26.6577 C.ar    1  UNL1       -0.0042
@<TRIPOS>UNITY_ATOM_ATTR
8 1
charge 1
@<TRIPOS>BOND
     1    12    13    1
     2    13    17   ar
     3    13    14   ar
     4    14    15   ar
     5    14    18    1
     6    15    16   ar
     7    16    17   ar
     8    16    11    1
     9    11     8    1
    10     8     9    1
    11     8     7    1
    12     7     1    1
    13     1     6   ar
    14     1     2   ar
    15     2     3    2
    16     2     4   ar
    17     4     5   ar
    18     4    28    1
    19     5     6   ar
    20     5    22    1
    21    22    23    1
    22    23    27   ar
    23    23    24   ar
    24    24    25   ar
    25    25    26   ar
    26    26    27   ar
    27    28    29    1
    28    29    30    1
    29    30    35   ar
    30    30    31   ar
    31    31    32   ar
    32    32    33   ar
    33    33    34   ar
    34    34    35   ar
    35    18    19    2
    36    18    20    1
    37    20    21    1
    38     8    10    1
@<TRIPOS>MOLECULE
ZINC19854215
 36 40 0 0 0
SMALL
GASTEIGER

@<TRIPOS>ATOM
      1 N          23.9438   39.2255   28.1363 N.ar    1  UNL1       -0.2881
      2 C          25.2549   39.6050   28.2220 C.ar    1  UNL1        0.1670
      3 N          25.7118   39.1667   29.3609 N.ar    1  UNL1       -0.1308
      4 N          24.7885   38.5341   29.9926 N.ar    1  UNL1       -0.1224
      5 C          23.6815   38.5390   29.2869 C.ar    1  UNL1        0.1932
      6 C          23.0154   39.4944   27.0354 C.3     1  UNL1        0.1357
      7 C          22.1482   37.4913   25.9414 C.2     1  UNL1       -0.0029
      8 C          23.1040   38.3836   26.0208 C.2     1  UNL1       -0.0017
      9 S          22.1472   37.8004   29.7395 S.3     1  UNL1       -0.0751
     10 C          21.1862   39.2843   30.1273 C.3     1  UNL1        0.0747
     11 C          20.4140   39.0660   31.4300 C.3     1  UNL1        0.0973
     12 C          18.9507   38.8800   31.1214 C.2     1  UNL1        0.2264
     13 O          18.6020   38.5649   30.0034 O.2     1  UNL1       -0.2748
     14 N          18.0296   39.0639   32.0880 N.am    1  UNL1       -0.2828
     15 C          16.6221   38.7514   31.8274 C.3     1  UNL1        0.0753
     16 C          16.2360   39.2591   30.4366 C.3     1  UNL1        0.0198
     17 C          14.7662   38.9328   30.1645 C.3     1  UNL1        0.0017
     18 C          13.8893   39.6134   31.2175 C.3     1  UNL1        0.0001
     19 C          14.2755   39.1059   32.6082 C.3     1  UNL1        0.0017
     20 C          15.7453   39.4321   32.8803 C.3     1  UNL1        0.0198
     21 C          18.4356   39.5761   33.3991 C.3     1  UNL1        0.0753
     22 C          19.0021   40.9885   33.2416 C.3     1  UNL1        0.0198
     23 C          19.4263   41.5235   34.6109 C.3     1  UNL1        0.0017
     24 C          20.4975   40.6078   35.2067 C.3     1  UNL1        0.0001
     25 C          19.9310   39.1953   35.3641 C.3     1  UNL1        0.0017
     26 C          19.5069   38.6603   33.9949 C.3     1  UNL1        0.0198
     27 C          26.0274   40.3873   27.1914 C.3     1  UNL1        0.1734
     28 N          26.2929   41.7354   27.6996 N.ar    1  UNL1       -0.3017
     29 C          27.5088   42.2468   28.0322 C.ar    1  UNL1        0.1789
     30 N          27.3799   43.4729   28.4480 N.ar    1  UNL1       -0.2239
     31 C          26.0711   43.8323   28.4106 C.ar    1  UNL1        0.0988
     32 C          25.3562   42.7243   27.9243 C.ar    1  UNL1        0.0793
     33 C          23.9773   42.7997   27.7844 C.ar    1  UNL1        0.0188
     34 C          23.3202   43.9665   28.1132 C.ar    1  UNL1        0.0016
     35 C          24.0271   45.0619   28.5877 C.ar    1  UNL1        0.0016
     36 C          25.3840   45.0040   28.7374 C.ar    1  UNL1        0.0206
@<TRIPOS>BOND
     1     7     8    2
     2     8     6    1
     3     6     1    1
     4     1     5   ar
     5     1     2   ar
     6     2     3   ar
     7     2    27    1
     8     3     4   ar
     9     4     5   ar
    10     5     9    1
    11     9    10    1
    12    10    11    1
    13    11    12    1
    14    12    13    2
    15    12    14   am
    16    14    15    1
    17    14    21    1
    18    15    20    1
    19    15    16    1
    20    16    17    1
    21    17    18    1
    22    18    19    1
    23    19    20    1
    24    21    26    1
    25    21    22    1
    26    22    23    1
    27    23    24    1
    28    24    25    1
    29    25    26    1
    30    27    28    1
    31    28    32   ar
    32    28    29   ar
    33    29    30   ar
    34    30    31   ar
    35    31    36   ar
    36    31    32   ar
    37    32    33   ar
    38    33    34   ar
    39    34    35   ar
    40    35    36   ar
@<TRIPOS>MOLECULE
ZINC03430492
 36 40 0 0 0
SMALL
GASTEIGER

@<TRIPOS>ATOM
      1 N          18.7295   38.8497   31.0700 N.am    1  UNL1       -0.2716
      2 C          19.6740   38.8735   30.1088 C.2     1  UNL1        0.2494
      3 O          19.4272   39.3706   29.0250 O.2     1  UNL1       -0.2699
      4 C          20.9542   38.3201   30.3596 C.2     1  UNL1        0.0581
      5 C          21.8602   38.2314   29.3596 C.2     1  UNL1        0.0078
      6 C          23.1852   37.6586   29.6192 C.ar    1  UNL1        0.0392
      7 C          23.5724   36.9367   30.7328 C.ar    1  UNL1        0.1019
      8 N          24.8639   36.5954   30.5745 N.ar    1  UNL1       -0.2282
      9 N          25.3387   37.0975   29.3597 N.ar    1  UNL1       -0.1645
     10 C          24.3669   37.7433   28.7505 C.ar    1  UNL1        0.1087
     11 C          25.6199   35.8540   31.4910 C.ar    1  UNL1        0.0828
     12 C          26.6017   34.9820   31.0390 C.ar    1  UNL1        0.0191
     13 C          27.3498   34.2570   31.9458 C.ar    1  UNL1        0.0015
     14 C          27.1137   34.3895   33.3019 C.ar    1  UNL1        0.0001
     15 C          26.1330   35.2527   33.7549 C.ar    1  UNL1        0.0015
     16 C          25.3857   35.9852   32.8536 C.ar    1  UNL1        0.0191
     17 C          24.4490   38.4236   27.4430 C.ar    1  UNL1        0.0488
     18 C          25.0966   39.5853   27.1131 C.ar    1  UNL1        0.0086
     19 C          25.0352   40.0302   25.8112 C.ar    1  UNL1        0.0075
     20 C          24.3294   39.3130   24.8993 C.ar    1  UNL1        0.0355
     21 S          23.7238   37.9509   25.8815 S.2     1  UNL1       -0.0849
     22 C          17.4059   39.4219   30.8107 C.3     1  UNL1        0.0987
     23 C          16.5241   38.3771   30.1240 C.3     1  UNL1        0.0479
     24 C          12.4670   38.9103   31.3498 C.ar    1  UNL1       -0.0000
     25 C          13.4828   39.5694   32.0166 C.ar    1  UNL1       -0.0003
     26 C          14.7958   39.3966   31.6202 C.ar    1  UNL1       -0.0042
     27 C          15.0929   38.5651   30.5566 C.ar    1  UNL1       -0.0205
     28 C          14.0765   37.9104   29.8862 C.ar    1  UNL1       -0.0042
     29 C          12.7641   38.0792   30.2860 C.ar    1  UNL1       -0.0003
     30 C          19.0263   38.2518   32.3740 C.3     1  UNL1        0.1204
     31 C          19.2428   39.3437   33.3899 C.ar    1  UNL1       -0.0023
     32 C          20.4471   39.4331   34.0624 C.ar    1  UNL1       -0.0026
     33 C          20.6477   40.4380   34.9902 C.ar    1  UNL1       -0.0003
     34 C          19.6399   41.3468   35.2536 C.ar    1  UNL1       -0.0000
     35 C          18.4335   41.2539   34.5851 C.ar    1  UNL1       -0.0003
     36 C          18.2350   40.2526   33.6531 C.ar    1  UNL1       -0.0026
@<TRIPOS>BOND
     1    24    29   ar
     2    24    25   ar
     3    25    26   ar
     4    26    27   ar
     5    27    28   ar
     6    27    23    1
     7    28    29   ar
     8    23    22    1
     9    22     1    1
    10     1    30    1
    11     1     2   am
    12    30    31    1
    13    31    36   ar
    14    31    32   ar
    15    32    33   ar
    16    33    34   ar
    17    34    35   ar
    18    35    36   ar
    19     2     3    2
    20     2     4    1
    21     4     5    2
    22     5     6    1
    23     6    10   ar
    24     6     7   ar
    25     7     8   ar
    26     8     9   ar
    27     8    11    1
    28     9    10   ar
    29    10    17    1
    30    17    21   ar
    31    17    18   ar
    32    18    19   ar
    33    19    20   ar
    34    20    21   ar
    35    11    16   ar
    36    11    12   ar
    37    12    13   ar
    38    13    14   ar
    39    14    15   ar
    40    15    16   ar
@<TRIPOS>MOLECULE
ZINC11992516
 34 37 0 0 0
SMALL
GASTEIGER

@<TRIPOS>ATOM
      1 C          28.9760   43.4614   25.5016 C.ar    1  UNL1        0.1642
      2 N          29.5624   44.1659   26.4289 N.ar    1  UNL1       -0.1310
      3 N          28.6936   44.8581   27.0749 N.ar    1  UNL1       -0.1206
      4 C          27.4930   44.6326   26.5921 C.ar    1  UNL1        0.2131
      5 N          27.6353   43.7326   25.5708 N.ar    1  UNL1       -0.1900
      6 C          29.8951   41.1773   25.2065 C.3     1  UNL1        0.0085
      7 C          29.6494   42.5272   24.5295 C.3     1  UNL1        0.0677
      8 N          26.6210   43.2000   24.7644 N.2     1  UNL1       -0.1605
      9 C          26.2357   41.9720   24.9324 C.2     1  UNL1        0.1236
     10 C          25.1689   41.4119   24.0841 C.ar    1  UNL1        0.0549
     11 C          24.7915   42.0643   22.9078 C.ar    1  UNL1        0.0046
     12 C          23.7963   41.5321   22.1159 C.ar    1  UNL1        0.0003
     13 C          23.1609   40.3591   22.4870 C.ar    1  UNL1        0.0031
     14 C          23.5208   39.7072   23.6511 C.ar    1  UNL1        0.0370
     15 C          24.5229   40.2248   24.4558 C.ar    1  UNL1        0.1405
     16 O          24.8781   39.5847   25.5993 O.3     1  UNL1       -0.4706
     17 C          24.4708   38.2214   25.7329 C.3     1  UNL1        0.2317
     18 C          24.0677   37.9551   27.1604 C.ar    1  UNL1        0.0172
     19 C          25.0296   37.9036   28.1522 C.ar    1  UNL1       -0.0010
     20 C          24.6593   37.6642   29.4622 C.ar    1  UNL1       -0.0002
     21 C          23.3283   37.4658   29.7790 C.ar    1  UNL1       -0.0003
     22 C          22.3673   37.5120   28.7867 C.ar    1  UNL1       -0.0045
     23 C          22.7371   37.7568   27.4772 C.ar    1  UNL1       -0.0223
     24 C          21.6894   37.8068   26.3952 C.3     1  UNL1        0.0308
     25 S          25.9856   45.3523   27.1527 S.3     1  UNL1       -0.0691
     26 C          25.7958   44.4925   28.7342 C.3     1  UNL1        0.0922
     27 C          24.6128   43.5618   28.6611 C.ar    1  UNL1       -0.0002
     28 C          23.3311   44.0613   28.7987 C.ar    1  UNL1       -0.0017
     29 C          22.2457   43.2085   28.7314 C.ar    1  UNL1        0.0112
     30 C          22.4412   41.8541   28.5260 C.ar    1  UNL1        0.0585
     31 C          23.7232   41.3538   28.3882 C.ar    1  UNL1        0.0225
     32 C          24.8093   42.2088   28.4505 C.ar    1  UNL1        0.0554
     33 CL         26.4185   41.5828   28.2710 Cl      1  UNL1       -0.0825
     34 CL         21.0776   40.7830   28.4419 Cl      1  UNL1       -0.0822
@<TRIPOS>BOND
     1     6     7    1
     2     7     1    1
     3     1     5   ar
     4     1     2   ar
     5     2     3   ar
     6     3     4   ar
     7     4     5   ar
     8     4    25    1
     9     5     8    1
    10     8     9    2
    11     9    10    1
    12    10    15   ar
    13    10    11   ar
    14    11    12   ar
    15    12    13   ar
    16    13    14   ar
    17    14    15   ar
    18    15    16    1
    19    16    17    1
    20    17    18    1
    21    18    23   ar
    22    18    19   ar
    23    19    20   ar
    24    20    21   ar
    25    21    22   ar
    26    22    23   ar
    27    23    24    1
    28    25    26    1
    29    26    27    1
    30    27    32   ar
    31    27    28   ar
    32    28    29   ar
    33    29    30   ar
    34    30    31   ar
    35    30    34    1
    36    31    32   ar
    37    32    33    1
@<TRIPOS>MOLECULE
ZINC02366283
 32 35 0 0 0
SMALL
GASTEIGER

@<TRIPOS>ATOM
      1 C          22.7552   38.5116   29.2467 C.ar    1  UNL1        0.1990
      2 N          22.7060   37.4193   29.9735 N.ar    1  UNL1       -0.1217
      3 N          23.8117   36.7664   29.8747 N.ar    1  UNL1       -0.1278
      4 C          24.6318   37.4058   29.0775 C.ar    1  UNL1        0.1738
      5 N          23.9855   38.5441   28.6481 N.ar    1  UNL1       -0.2482
      6 C          24.6076   39.4160   27.7945 C.ar    1  UNL1        0.1782
      7 N          25.8278   39.1939   27.3645 N.ar    1  UNL1       -0.2155
      8 C          26.5251   38.1201   27.7280 C.ar    1  UNL1        0.1152
      9 C          26.0070   37.1485   28.5971 C.ar    1  UNL1        0.0565
     10 C          26.8903   36.0297   28.9018 C.ar    1  UNL1       -0.0105
     11 C          28.1141   36.0351   28.3233 C.ar    1  UNL1        0.0345
     12 S          28.1522   37.5145   27.3529 S.2     1  UNL1       -0.0701
     13 C          29.1786   34.9962   28.4926 C.3     1  UNL1        0.1745
     14 O          28.8140   34.1672   29.6077 O.3     1  UNL1       -0.3529
     15 C          27.4577   33.7126   29.5601 C.3     1  UNL1        0.0974
     16 C          26.5001   34.8782   29.8253 C.3     1  UNL1        0.0540
     17 C          27.2480   32.6323   30.6230 C.3     1  UNL1        0.0300
     18 C          27.1708   33.1254   28.1767 C.3     1  UNL1        0.0300
     19 S          21.4762   39.7112   29.0738 S.3     1  UNL1       -0.0633
     20 C          20.6221   39.6758   30.6737 C.3     1  UNL1        0.1743
     21 C          19.5621   38.6048   30.6538 C.2     1  UNL1        0.3286
     22 O          19.2819   38.0514   29.6168 O.2     1  UNL1       -0.2491
     23 O          18.9292   38.2657   31.7878 O.3     1  UNL1       -0.4479
     24 C          18.1823   39.3112   32.4639 C.3     1  UNL1        0.2085
     25 C          18.4789   39.2613   33.9640 C.3     1  UNL1        0.0474
     26 C          19.9868   39.1206   34.1814 C.3     1  UNL1        0.0038
     27 C          19.4304   41.2477   35.3680 C.3     1  UNL1        0.0000
     28 C          20.4400   40.1030   35.2633 C.3     1  UNL1        0.0001
     29 S          23.7541   40.8634   27.2641 S.3     1  UNL1       -0.0769
     30 C          24.4723   42.0829   28.3923 C.3     1  UNL1        0.0651
     31 C          23.5176   43.2700   28.5351 C.3     1  UNL1        0.0121
     32 C          24.2363   44.4203   29.2429 C.3     1  UNL1        0.0009
@<TRIPOS>BOND
     1    27    28    1
     2    28    26    1
     3    26    25    1
     4    25    24    1
     5    24    23    1
     6    23    21    1
     7    21    22    2
     8    21    20    1
     9    20    19    1
    10    19     1    1
    11     1     5   ar
    12     1     2   ar
    13     2     3   ar
    14     3     4   ar
    15     4     9   ar
    16     4     5   ar
    17     5     6   ar
    18     6     7   ar
    19     6    29    1
    20     7     8   ar
    21     8    12   ar
    22     8     9   ar
    23     9    10   ar
    24    10    16    1
    25    10    11   ar
    26    11    12   ar
    27    11    13    1
    28    13    14    1
    29    14    15    1
    30    15    16    1
    31    15    17    1
    32    15    18    1
    33    29    30    1
    34    30    31    1
    35    31    32    1
@<TRIPOS>MOLECULE
ZINC25393610
 34 36 0 0 0
SMALL
GASTEIGER

@<TRIPOS>ATOM
      1 N          18.8643   39.3069   31.6482 N.ar    1  UNL1       -0.3108
      2 C          17.4898   39.1938   31.7133 C.ar    1  UNL1        0.0789
      3 C          16.5482   39.4511   32.7002 C.ar    1  UNL1        0.0201
      4 C          15.2115   39.2286   32.4446 C.ar    1  UNL1        0.0215
      5 C          14.8016   38.7488   31.2082 C.ar    1  UNL1        0.1238
      6 C          15.7121   38.4894   30.2243 C.ar    1  UNL1        0.0405
      7 C          17.0748   38.7078   30.4594 C.ar    1  UNL1        0.1000
      8 N          18.1797   38.5543   29.7028 N.ar    1  UNL1       -0.2259
      9 C          19.2425   38.8992   30.3939 C.ar    1  UNL1        0.1544
     10 C          20.6235   38.8603   29.8976 C.2     1  UNL1        0.0917
     11 C          21.2291   37.6751   29.6815 C.2     1  UNL1        0.0144
     12 CL         21.4770   40.3401   29.5889 Cl      1  UNL1       -0.0791
     13 C          22.6574   37.6318   29.3327 C.ar    1  UNL1        0.0009
     14 C          23.0622   37.8482   28.0102 C.ar    1  UNL1        0.0002
     15 C          24.3884   37.8083   27.6873 C.ar    1  UNL1        0.0064
     16 C          25.3421   37.5512   28.6773 C.ar    1  UNL1        0.0756
     17 C          24.9380   37.3292   29.9977 C.ar    1  UNL1        0.0064
     18 C          23.6125   37.3745   30.3232 C.ar    1  UNL1        0.0002
     19 C          26.7747   37.5081   28.3276 C.2     1  UNL1        0.3413
     20 O          27.2407   38.3372   27.5715 O.2     1  UNL1       -0.2449
     21 O          27.5676   36.5526   28.8511 O.3     1  UNL1       -0.4413
     22 C          28.6985   36.9969   29.6462 C.3     1  UNL1        0.2560
     23 S          13.0880   38.4722   30.9050 S.O2    1  UNL1        0.0633
     24 O          12.6947   37.3978   31.7479 O.2     1  UNL1       -0.1528
     25 O          12.4573   39.7447   30.9485 O.2     1  UNL1       -0.1528
     26 N          12.9480   37.9275   29.3475 N.3     1  UNL1       -0.1555
     27 C          11.6240   37.6514   28.7843 C.3     1  UNL1        0.0958
     28 C          11.6211   37.9987   27.2943 C.3     1  UNL1        0.0206
     29 C          14.1481   37.7215   28.5328 C.3     1  UNL1        0.0958
     30 C          14.2484   36.2472   28.1362 C.3     1  UNL1        0.0206
     31 C          19.7512   39.7745   32.7164 C.3     1  UNL1        0.1075
     32 C          19.6647   38.8172   33.9067 C.3     1  UNL1        0.0245
     33 C          19.8678   40.9917   35.1203 C.3     1  UNL1        0.0001
     34 C          20.2227   39.5039   35.1550 C.3     1  UNL1        0.0020
@<TRIPOS>BOND
     1    33    34    1
     2    34    32    1
     3    32    31    1
     4    31     1    1
     5     1     9   ar
     6     1     2   ar
     7     2     7   ar
     8     2     3   ar
     9     3     4   ar
    10     4     5   ar
    11     5     6   ar
    12     5    23    1
    13     6     7   ar
    14     7     8   ar
    15     8     9   ar
    16     9    10    1
    17    10    11    2
    18    10    12    1
    19    11    13    1
    20    13    18   ar
    21    13    14   ar
    22    14    15   ar
    23    15    16   ar
    24    16    17   ar
    25    16    19    1
    26    17    18   ar
    27    19    20    2
    28    19    21    1
    29    21    22    1
    30    23    24    2
    31    23    25    2
    32    23    26    1
    33    26    27    1
    34    26    29    1
    35    27    28    1
    36    29    30    1
@<TRIPOS>MOLECULE
ZINC15319558
 34 37 0 0 0
SMALL
GASTEIGER

@<TRIPOS>ATOM
      1 C          22.6118   38.0524   29.8427 C.2     1  UNL1        0.0473
      2 C          23.0862   38.4159   28.6387 C.3     1  UNL1        0.1435
      3 C          24.5262   38.1979   28.2714 C.3     1  UNL1        0.0705
      4 C          25.1634   37.1757   29.1786 C.2     1  UNL1        0.0317
      5 C          24.5997   36.8580   30.3652 C.2     1  UNL1        0.0577
      6 N          23.4312   37.4535   30.7582 N.2     1  UNL1       -0.2579
      7 C          25.2474   35.8592   31.2893 C.3     1  UNL1        0.0514
      8 C          25.9938   34.8084   30.4613 C.3     1  UNL1        0.0523
      9 C          27.0408   35.5237   29.6009 C.3     1  UNL1        0.1650
     10 C          26.3538   36.5601   28.7540 C.2     1  UNL1        0.1812
     11 O          26.8368   36.8706   27.6831 O.2     1  UNL1       -0.2910
     12 C          26.6737   33.8284   31.3824 C.ar    1  UNL1        0.0083
     13 C          26.7739   32.4811   31.2716 C.ar    1  UNL1        0.0027
     14 C          27.4537   31.7769   32.2478 C.ar    1  UNL1        0.0072
     15 C          28.0001   32.4546   33.2868 C.ar    1  UNL1        0.0351
     16 S          27.5630   34.1414   32.8985 S.2     1  UNL1       -0.0908
     17 C          25.2793   39.4983   28.3848 C.ar    1  UNL1        0.0121
     18 C          25.6382   40.1825   29.4985 C.ar    1  UNL1        0.0030
     19 C          26.3345   41.3687   29.3613 C.ar    1  UNL1        0.0072
     20 C          26.6378   41.8127   28.1170 C.ar    1  UNL1        0.0351
     21 S          25.9370   40.5335   27.0875 S.2     1  UNL1       -0.0904
     22 C          27.7317   34.5228   28.7114 C.2     1  UNL1        0.3243
     23 O          28.9385   34.4697   28.6853 O.2     1  UNL1       -0.2496
     24 O          27.0065   33.6902   27.9480 O.3     1  UNL1       -0.4482
     25 C          27.5912   33.2763   26.6851 C.3     1  UNL1        0.2086
     26 C          26.9401   34.0569   25.5416 C.3     1  UNL1        0.0513
     27 C          22.2149   39.0222   27.7038 C.2     1  UNL1        0.3225
     28 O          21.3832   38.3504   27.1226 O.2     1  UNL1       -0.2497
     29 O          22.3059   40.3456   27.4563 O.3     1  UNL1       -0.4482
     30 C          21.8431   41.2302   28.4788 C.3     1  UNL1        0.2086
     31 C          22.7246   42.4804   28.5090 C.3     1  UNL1        0.0513
     32 C          21.1664   38.3067   30.1854 C.3     1  UNL1        0.0419
     33 C          19.6386   39.1270   31.9839 C.3     1  UNL1        0.0004
     34 C          21.0841   39.1133   31.4829 C.3     1  UNL1        0.0060
@<TRIPOS>BOND
     1    33    34    1
     2    34    32    1
     3    32     1    1
     4     1     6    2
     5     1     2    1
     6     2     3    1
     7     2    27    1
     8     3     4    1
     9     3    17    1
    10     4    10    1
    11     4     5    2
    12     5     7    1
    13     5     6    1
    14     7     8    1
    15     8     9    1
    16     8    12    1
    17     9    10    1
    18     9    22    1
    19    10    11    2
    20    22    23    2
    21    22    24    1
    22    24    25    1
    23    25    26    1
    24    12    16   ar
    25    12    13   ar
    26    13    14   ar
    27    14    15   ar
    28    15    16   ar
    29    17    21   ar
    30    17    18   ar
    31    18    19   ar
    32    19    20   ar
    33    20    21   ar
    34    27    28    2
    35    27    29    1
    36    29    30    1
    37    30    31    1
@<TRIPOS>MOLECULE
ZINC08899442
 37 40 0 0 0
SMALL
GASTEIGER

@<TRIPOS>ATOM
      1 C          26.9467   40.6805   28.0285 C.ar    1  UNL1        0.1345
      2 C          26.8582   40.8028   26.6309 C.ar    1  UNL1        0.0303
      3 C          26.1735   39.7790   25.9207 C.ar    1  UNL1        0.1013
      4 N          25.6509   38.7649   26.5673 N.ar    1  UNL1       -0.1665
      5 N          25.7220   38.6371   27.8408 N.ar    1  UNL1       -0.2119
      6 C          26.3477   39.5360   28.6226 C.ar    1  UNL1        0.2829
      7 O          26.3969   39.3727   29.8297 O.2     1  UNL1       -0.2653
      8 C          26.0504   39.8577   24.4452 C.ar    1  UNL1        0.0193
      9 C          27.0671   39.3617   23.6308 C.ar    1  UNL1        0.0016
     10 C          26.9440   39.4316   22.2580 C.ar    1  UNL1        0.0000
     11 C          25.8201   40.0043   21.6901 C.ar    1  UNL1        0.0000
     12 C          24.8108   40.5038   22.4933 C.ar    1  UNL1        0.0000
     13 C          24.9200   40.4333   23.8673 C.ar    1  UNL1        0.0016
     14 C          27.4562   41.9548   25.9248 C.ar    1  UNL1        0.0019
     15 C          28.7942   41.9158   25.5264 C.ar    1  UNL1        0.0001
     16 C          29.3445   42.9927   24.8630 C.ar    1  UNL1        0.0000
     17 C          28.5772   44.1144   24.6023 C.ar    1  UNL1        0.0000
     18 C          27.2523   44.1620   24.9989 C.ar    1  UNL1        0.0000
     19 C          26.6875   43.0901   25.6581 C.ar    1  UNL1        0.0001
     20 C          27.6357   41.6916   28.8422 C.2     1  UNL1        0.3460
     21 O          28.7710   41.4909   29.2277 O.2     1  UNL1       -0.2447
     22 O          27.0088   42.8418   29.1611 O.3     1  UNL1       -0.4453
     23 C          25.0104   44.2300   29.2595 C.3     1  UNL1        0.0513
     24 C          25.5596   42.8020   29.2428 C.3     1  UNL1        0.2089
     25 C          25.1050   37.4655   28.4676 C.3     1  UNL1        0.1571
     26 C          23.7056   37.8100   28.9080 C.ar    1  UNL1        0.0022
     27 C          23.4303   37.9848   30.2527 C.ar    1  UNL1       -0.0021
     28 C          22.1526   38.3050   30.6624 C.ar    1  UNL1        0.0062
     29 C          21.1337   38.4422   29.7176 C.ar    1  UNL1        0.0756
     30 C          21.4174   38.2591   28.3627 C.ar    1  UNL1        0.0062
     31 C          22.7007   37.9445   27.9664 C.ar    1  UNL1       -0.0021
     32 C          19.7619   38.7798   30.1493 C.2     1  UNL1        0.3411
     33 O          18.8113   38.4373   29.4750 O.2     1  UNL1       -0.2449
     34 O          19.5651   39.4676   31.2908 O.3     1  UNL1       -0.4492
     35 C          18.8341   38.7935   32.3489 C.3     1  UNL1        0.1694
     36 C          19.5985   38.9346   33.6667 C.3     1  UNL1        0.0473
     37 C          17.4478   39.4248   32.4931 C.3     1  UNL1        0.0473
@<TRIPOS>BOND
     1    23    24    1
     2    24    22    1
     3    22    20    1
     4    20    21    2
     5    20     1    1
     6     1     6   ar
     7     1     2   ar
     8     2     3   ar
     9     2    14    1
    10     3     4   ar
    11     3     8    1
    12     4     5   ar
    13     5     6   ar
    14     5    25    1
    15     6     7    2
    16    25    26    1
    17    26    31   ar
    18    26    27   ar
    19    27    28   ar
    20    28    29   ar
    21    29    30   ar
    22    29    32    1
    23    30    31   ar
    24    32    33    2
    25    32    34    1
    26    34    35    1
    27    35    36    1
    28    35    37    1
    29     8    13   ar
    30     8     9   ar
    31     9    10   ar
    32    10    11   ar
    33    11    12   ar
    34    12    13   ar
    35    14    19   ar
    36    14    15   ar
    37    15    16   ar
    38    16    17   ar
    39    17    18   ar
    40    18    19   ar
@<TRIPOS>MOLECULE
ZINC20052932
 34 37 0 0 0
SMALL
GASTEIGER

@<TRIPOS>ATOM
      1 C          22.5133   38.8032   27.3869 C.2     1  UNL1        0.0820
      2 C          23.1207   38.8221   28.5961 C.2     1  UNL1        0.0098
      3 C          24.4588   39.4053   28.7354 C.ar    1  UNL1        0.0388
      4 C          24.9165   40.5774   28.1617 C.ar    1  UNL1        0.0970
      5 N          26.1935   40.7488   28.5375 N.ar    1  UNL1       -0.2449
      6 N          26.5869   39.6964   29.3685 N.ar    1  UNL1       -0.1684
      7 C          25.5787   38.8640   29.5168 C.ar    1  UNL1        0.1083
      8 C          25.5739   37.6224   30.3159 C.ar    1  UNL1        0.0488
      9 C          24.5943   37.1273   31.1361 C.ar    1  UNL1        0.0086
     10 C          24.8152   35.9320   31.7838 C.ar    1  UNL1        0.0075
     11 C          25.9969   35.2884   31.6003 C.ar    1  UNL1        0.0355
     12 S          26.8463   36.3796   30.4713 S.2     1  UNL1       -0.0849
     13 C          27.0450   41.8732   28.1411 C.3     1  UNL1        0.1538
     14 C          26.2997   43.1661   28.3514 C.ar    1  UNL1        0.0021
     15 C          25.5802   43.3679   29.5144 C.ar    1  UNL1       -0.0023
     16 C          24.8923   44.5518   29.7048 C.ar    1  UNL1       -0.0003
     17 C          24.9320   45.5376   28.7367 C.ar    1  UNL1       -0.0000
     18 C          25.6522   45.3362   27.5742 C.ar    1  UNL1       -0.0003
     19 C          26.3362   44.1504   27.3815 C.ar    1  UNL1       -0.0023
     20 C          21.2224   38.2405   27.2524 C.2     1  UNL1        0.3417
     21 O          20.9828   37.4804   26.3329 O.2     1  UNL1       -0.2449
     22 O          20.2565   38.5466   28.1441 O.3     1  UNL1       -0.4404
     23 C          20.2753   37.8434   29.3878 C.3     1  UNL1        0.2379
     24 C          19.8298   38.7659   30.4932 C.2     1  UNL1        0.0571
     25 O          20.4434   39.7819   30.7159 O.2     1  UNL1       -0.3286
     26 C          18.6186   38.4204   31.3206 C.2     1  UNL1       -0.0999
     27 C          20.1506   40.8692   35.4053 C.3     1  UNL1        0.0525
     28 C          19.1271   40.5521   34.3455 C.ar    1  UNL1        0.0629
     29 C          17.9162   41.1657   34.3428 C.ar    1  UNL1        0.0485
     30 S          17.1688   40.4103   32.9060 S.2     1  UNL1       -0.1048
     31 C          18.5032   39.3877   32.4705 C.ar    1  UNL1       -0.0497
     32 N          19.3835   39.6692   33.4032 N.ar    1  UNL1       -0.2804
     33 C          17.4112   38.5073   30.4832 C.1     1  UNL1       -0.1066
     34 N          16.4793   38.5743   29.8369 N.1     1  UNL1       -0.2342
@<TRIPOS>UNITY_ATOM_ATTR
26 1
charge -1
@<TRIPOS>BOND
     1    27    28    1
     2    28    32   ar
     3    28    29   ar
     4    29    30   ar
     5    30    31   ar
     6    31    32   ar
     7    31    26    1
     8    26    33    1
     9    26    24    1
    10    33    34    3
    11    24    25    2
    12    24    23    1
    13    23    22    1
    14    22    20    1
    15    20    21    2
    16    20     1    1
    17     1     2    2
    18     2     3    1
    19     3     7   ar
    20     3     4   ar
    21     4     5   ar
    22     5     6   ar
    23     5    13    1
    24     6     7   ar
    25     7     8    1
    26     8    12   ar
    27     8     9   ar
    28     9    10   ar
    29    10    11   ar
    30    11    12   ar
    31    13    14    1
    32    14    19   ar
    33    14    15   ar
    34    15    16   ar
    35    16    17   ar
    36    17    18   ar
    37    18    19   ar
@<TRIPOS>MOLECULE
ZINC05371386
 38 42 0 0 0
SMALL
GASTEIGER

@<TRIPOS>ATOM
      1 C          25.9779   36.2065   30.0608 C.3     1  UNL1        0.2980
      2 O          25.7510   36.8069   28.7534 O.3     1  UNL1       -0.3073
      3 C          24.6801   37.7214   29.0024 C.3     1  UNL1        0.2055
      4 C          23.8010   38.0698   27.8125 C.3     1  UNL1        0.1773
      5 C          22.6334   38.9155   28.3505 C.3     1  UNL1        0.1748
      6 C          21.9048   38.1937   29.4813 C.3     1  UNL1        0.1768
      7 O          22.8162   37.7453   30.4994 O.3     1  UNL1       -0.3259
      8 C          23.7973   36.8812   29.9680 C.3     1  UNL1        0.2695
      9 O          24.7655   36.3190   30.8410 O.3     1  UNL1       -0.2852
     10 C          27.1143   36.9515   30.7641 C.3     1  UNL1        0.0962
     11 O          26.3267   34.8291   29.9092 O.3     1  UNL1       -0.3126
     12 C          27.1841   33.0128   28.5652 C.3     1  UNL1        0.0348
     13 C          26.9543   34.5223   28.6626 C.3     1  UNL1        0.1471
     14 C          20.8868   39.1489   30.1078 C.3     1  UNL1        0.1747
     15 O          20.7317   38.8375   31.4938 O.3     1  UNL1       -0.3463
     16 C          19.3921   38.9714   31.9731 C.3     1  UNL1        0.1687
     17 C          19.3889   39.8051   33.2285 C.ar    1  UNL1        0.0073
     18 C          18.3180   40.6344   33.5049 C.ar    1  UNL1       -0.0019
     19 C          18.3130   41.3954   34.6589 C.ar    1  UNL1       -0.0002
     20 C          19.3835   41.3351   35.5313 C.ar    1  UNL1       -0.0000
     21 C          20.4568   40.5097   35.2523 C.ar    1  UNL1       -0.0002
     22 C          20.4595   39.7448   34.1010 C.ar    1  UNL1       -0.0019
     23 O          23.1417   40.1578   28.8408 O.3     1  UNL1       -0.3463
     24 C          22.7825   41.2880   28.0437 C.3     1  UNL1        0.1687
     25 C          23.6851   42.4471   28.3798 C.ar    1  UNL1        0.0073
     26 C          23.1569   43.7170   28.5179 C.ar    1  UNL1       -0.0019
     27 C          23.9841   44.7795   28.8306 C.ar    1  UNL1       -0.0002
     28 C          25.3410   44.5735   28.9962 C.ar    1  UNL1       -0.0000
     29 C          25.8700   43.3044   28.8529 C.ar    1  UNL1       -0.0002
     30 C          25.0421   42.2413   28.5445 C.ar    1  UNL1       -0.0019
     31 O          24.5495   38.8232   26.8565 O.3     1  UNL1       -0.3462
     32 C          24.1796   38.5710   25.4994 C.3     1  UNL1        0.1687
     33 C          24.3778   39.8226   24.6838 C.ar    1  UNL1        0.0073
     34 C          25.1536   40.8543   25.1784 C.ar    1  UNL1       -0.0019
     35 C          25.3351   42.0025   24.4304 C.ar    1  UNL1       -0.0002
     36 C          24.7397   42.1196   23.1884 C.ar    1  UNL1       -0.0000
     37 C          23.9629   41.0885   22.6943 C.ar    1  UNL1       -0.0002
     38 C          23.7817   39.9401   23.4421 C.ar    1  UNL1       -0.0019
@<TRIPOS>BOND
     1    12    13    1
     2    13    11    1
     3    11     1    1
     4     1     9    1
     5     1     2    1
     6     1    10    1
     7     2     3    1
     8     3     8    1
     9     3     4    1
    10     4     5    1
    11     4    31    1
    12     5     6    1
    13     5    23    1
    14     6     7    1
    15     6    14    1
    16     7     8    1
    17     8     9    1
    18    14    15    1
    19    15    16    1
    20    16    17    1
    21    17    22   ar
    22    17    18   ar
    23    18    19   ar
    24    19    20   ar
    25    20    21   ar
    26    21    22   ar
    27    23    24    1
    28    24    25    1
    29    25    30   ar
    30    25    26   ar
    31    26    27   ar
    32    27    28   ar
    33    28    29   ar
    34    29    30   ar
    35    31    32    1
    36    32    33    1
    37    33    38   ar
    38    33    34   ar
    39    34    35   ar
    40    35    36   ar
    41    36    37   ar
    42    37    38   ar
@<TRIPOS>MOLECULE
ZINC08919326
 35 38 0 0 0
SMALL
GASTEIGER

@<TRIPOS>ATOM
      1 N          12.3007   37.1527   27.8687 N.ar    1  UNL1       -0.2739
      2 C          13.5174   37.0217   27.2852 C.ar    1  UNL1        0.1815
      3 N          14.6143   37.3980   27.8845 N.ar    1  UNL1       -0.2186
      4 C          14.5958   37.9292   29.1001 C.ar    1  UNL1        0.1169
      5 C          13.3895   38.1181   29.8131 C.ar    1  UNL1        0.0768
      6 C          12.1672   37.6799   29.1014 C.ar    1  UNL1        0.2639
      7 O          11.0692   37.7937   29.6168 O.2     1  UNL1       -0.2669
      8 C          13.5163   38.6823   31.0839 C.ar    1  UNL1       -0.0030
      9 C          14.7510   39.0229   31.5558 C.ar    1  UNL1        0.1027
     10 S          15.8302   38.5461   30.2165 S.2     1  UNL1       -0.0617
     11 C          12.2923   38.9193   31.9306 C.3     1  UNL1        0.0320
     12 C          15.1034   39.6244   32.8436 C.2     1  UNL1        0.3470
     13 O          15.3596   38.9137   33.7969 O.2     1  UNL1       -0.2443
     14 O          15.1492   40.9666   32.9712 O.3     1  UNL1       -0.4447
     15 C          16.4617   41.5869   32.9439 C.3     1  UNL1        0.2134
     16 C          17.0872   41.5186   34.3385 C.3     1  UNL1        0.0738
     17 C          18.4310   40.8417   34.2538 C.ar    1  UNL1       -0.0184
     18 C          19.3757   41.0549   35.2401 C.ar    1  UNL1       -0.0041
     19 C          20.6066   40.4302   35.1648 C.ar    1  UNL1       -0.0003
     20 C          20.8964   39.6000   34.0980 C.ar    1  UNL1       -0.0000
     21 C          19.9536   39.3913   33.1088 C.ar    1  UNL1       -0.0003
     22 C          18.7209   40.0119   33.1868 C.ar    1  UNL1       -0.0041
     23 C          11.1063   36.7122   27.1436 C.3     1  UNL1        0.1373
     24 C          10.5658   39.1520   23.6734 C.ar    1  UNL1        0.0756
     25 C          10.7069   39.7425   24.9308 C.ar    1  UNL1        0.0062
     26 C          10.8807   38.9496   26.0461 C.ar    1  UNL1       -0.0022
     27 C          10.9154   37.5720   25.9208 C.ar    1  UNL1        0.0005
     28 C          10.7815   36.9804   24.6771 C.ar    1  UNL1       -0.0022
     29 C          10.6017   37.7613   23.5543 C.ar    1  UNL1        0.0062
     30 C          10.3787   39.9949   22.4747 C.2     1  UNL1        0.3412
     31 O          10.3536   39.4857   21.3722 O.2     1  UNL1       -0.2449
     32 O          10.2359   41.3282   22.6043 O.3     1  UNL1       -0.4454
     33 C          10.6207   42.1459   21.4679 C.3     1  UNL1        0.2088
     34 C          12.3092   42.6517   23.2387 C.3     1  UNL1        0.0040
     35 C          11.9597   42.8263   21.7594 C.3     1  UNL1        0.0475
@<TRIPOS>BOND
     1    34    35    1
     2    35    33    1
     3    33    32    1
     4    32    30    1
     5    30    31    2
     6    30    24    1
     7    24    29   ar
     8    24    25   ar
     9    25    26   ar
    10    26    27   ar
    11    27    28   ar
    12    27    23    1
    13    28    29   ar
    14    23     1    1
    15     1     6   ar
    16     1     2   ar
    17     2     3   ar
    18     3     4   ar
    19     4    10   ar
    20     4     5   ar
    21     5     6   ar
    22     5     8   ar
    23     6     7    2
    24     8     9   ar
    25     8    11    1
    26     9    10   ar
    27     9    12    1
    28    12    13    2
    29    12    14    1
    30    14    15    1
    31    15    16    1
    32    16    17    1
    33    17    22   ar
    34    17    18   ar
    35    18    19   ar
    36    19    20   ar
    37    20    21   ar
    38    21    22   ar
@<TRIPOS>MOLECULE
ZINC16791070
 36 39 0 0 0
SMALL
GASTEIGER

@<TRIPOS>ATOM
      1 C          21.9932   38.3707   29.3241 C.ar    1  UNL1        0.0392
      2 C          20.8136   38.9052   29.8081 C.ar    1  UNL1        0.1019
      3 N          20.8823   38.9030   31.1530 N.ar    1  UNL1       -0.2282
      4 N          22.1072   38.3670   31.5602 N.ar    1  UNL1       -0.1651
      5 C          22.8067   38.0338   30.4986 C.ar    1  UNL1        0.1028
      6 N          24.4066   40.1262   25.5537 N.am    1  UNL1       -0.2441
      7 C          23.6420   39.1045   25.9002 C.2     1  UNL1        0.2595
      8 O          23.3581   38.2222   25.1108 O.2     1  UNL1       -0.2690
      9 C          23.1499   39.0871   27.2896 C.2     1  UNL1        0.0850
     10 C          22.3588   38.1778   27.9168 C.2     1  UNL1        0.0142
     11 S          23.8733   40.5952   27.9203 S.3     1  UNL1       -0.0604
     12 C          24.7181   41.1020   26.4310 C.2     1  UNL1        0.1212
     13 S          25.6838   42.4926   26.1768 S.2     1  UNL1       -0.0272
     14 C          24.9268   40.1999   24.1861 C.3     1  UNL1        0.0994
     15 C          23.9736   41.0277   23.3218 C.3     1  UNL1        0.0203
     16 C          24.7698   42.0835   22.5522 C.3     1  UNL1        0.0017
     17 C          26.2584   41.7329   22.5973 C.3     1  UNL1        0.0001
     18 C          23.2549   40.1090   22.3318 C.3     1  UNL1        0.0017
     19 C          23.4876   40.6137   20.9064 C.3     1  UNL1        0.0001
     20 C          24.8357   40.2088   18.8421 C.3     1  UNL1        0.0000
     21 C          24.2875   39.5724   20.1209 C.3     1  UNL1        0.0000
     22 C          24.1607   37.4312   30.4891 C.ar    1  UNL1        0.0211
     23 C          24.3838   36.2010   31.1067 C.ar    1  UNL1        0.0017
     24 C          25.6453   35.6425   31.0900 C.ar    1  UNL1        0.0018
     25 C          26.6904   36.3058   30.4718 C.ar    1  UNL1        0.0241
     26 C          26.4763   37.5289   29.8621 C.ar    1  UNL1        0.1429
     27 C          25.2176   38.0949   29.8678 C.ar    1  UNL1        0.0256
     28 N          27.5996   38.2322   29.2029 N.pl3   1  UNL1        0.0577
     29 O          28.6513   37.6501   29.0065 O.2     1  UNL1       -0.1261
     30 O          27.4722   39.3930   28.8569 O.2     1  UNL1       -0.1261
     31 C          19.8789   39.3671   32.0129 C.ar    1  UNL1        0.0828
     32 C          20.2033   40.2014   33.0746 C.ar    1  UNL1        0.0191
     33 C          19.2109   40.6613   33.9178 C.ar    1  UNL1        0.0015
     34 C          17.8967   40.2834   33.7121 C.ar    1  UNL1        0.0001
     35 C          17.5710   39.4486   32.6589 C.ar    1  UNL1        0.0015
     36 C          18.5581   38.9895   31.8090 C.ar    1  UNL1        0.0191
@<TRIPOS>BOND
     1    20    21    1
     2    21    19    1
     3    19    18    1
     4    18    15    1
     5    15    16    1
     6    15    14    1
     7    16    17    1
     8    14     6    1
     9     6    12    1
    10     6     7   am
    11     7     8    2
    12     7     9    1
    13     9    10    2
    14     9    11    1
    15    10     1    1
    16     1     5   ar
    17     1     2   ar
    18     2     3   ar
    19     3     4   ar
    20     3    31    1
    21     4     5   ar
    22     5    22    1
    23    22    27   ar
    24    22    23   ar
    25    23    24   ar
    26    24    25   ar
    27    25    26   ar
    28    26    27   ar
    29    26    28    1
    30    28    29    2
    31    28    30    2
    32    31    36   ar
    33    31    32   ar
    34    32    33   ar
    35    33    34   ar
    36    34    35   ar
    37    35    36   ar
    38    11    12    1
    39    12    13    2
@<TRIPOS>MOLECULE
ZINC17263291
 37 40 0 0 0
SMALL
GASTEIGER

@<TRIPOS>ATOM
      1 C          26.8907   41.2292   28.4154 C.ar    1  UNL1        0.1143
      2 C          26.0242   41.7613   29.3164 C.ar    1  UNL1        0.0233
      3 C          25.7501   43.0918   28.9172 C.ar    1  UNL1        0.0174
      4 C          24.9451   44.1089   29.4467 C.ar    1  UNL1        0.0015
      5 C          24.8826   45.3199   28.8214 C.ar    1  UNL1        0.0001
      6 C          25.6108   45.5560   27.6619 C.ar    1  UNL1        0.0015
      7 C          26.4091   44.5727   27.1221 C.ar    1  UNL1        0.0172
      8 C          26.4894   43.3286   27.7420 C.ar    1  UNL1        0.0600
      9 N          27.1845   42.1776   27.4549 N.ar    1  UNL1       -0.3236
     10 C          25.4330   38.9260   27.2263 C.3     1  UNL1        0.1073
     11 C          25.4116   37.6340   26.3715 C.3     1  UNL1        0.1636
     12 O          26.0816   36.6832   27.2394 O.3     1  UNL1       -0.3399
     13 C          27.1262   37.4241   27.8920 C.3     1  UNL1        0.1554
     14 N          26.7391   38.8439   27.9171 N.am    1  UNL1       -0.2552
     15 C          27.4342   39.8635   28.4591 C.2     1  UNL1        0.2665
     16 O          28.5111   39.6539   28.9846 O.2     1  UNL1       -0.2683
     17 C          28.4361   37.2597   27.1187 C.3     1  UNL1        0.0510
     18 C          23.1892   39.8845   27.7634 C.3     1  UNL1        0.0018
     19 C          24.2843   38.9266   28.2368 C.3     1  UNL1        0.0225
     20 C          27.3053   36.9125   29.3229 C.3     1  UNL1        0.0468
     21 C          26.3888   35.7091   29.5527 C.3     1  UNL1        0.0042
     22 C          25.8234   35.7627   30.9734 C.3     1  UNL1        0.0001
     23 C          24.4453   36.4269   30.9491 C.3     1  UNL1        0.0000
     24 C          25.6948   34.3415   31.5252 C.3     1  UNL1        0.0000
     25 C          28.0861   41.9873   26.3160 C.3     1  UNL1        0.1075
     26 C          27.3578   41.2180   25.2120 C.3     1  UNL1        0.0404
     27 C          28.2417   40.0687   24.7221 C.3     1  UNL1        0.0049
     28 C          27.5010   39.2785   23.6408 C.3     1  UNL1        0.0192
     29 C          27.2041   40.2001   22.4536 C.3     1  UNL1        0.0954
     30 N          26.4787   41.3810   22.9416 N.3     1  UNL1       -0.1594
     31 C          27.0593   42.1615   24.0427 C.3     1  UNL1        0.0973
     32 S          25.0342   41.8236   22.2636 S.O2    1  UNL1        0.0421
     33 O          24.5178   42.8236   23.1312 O.2     1  UNL1       -0.1573
     34 O          25.3467   42.1288   20.9114 O.2     1  UNL1       -0.1573
     35 C          24.0043   40.3327   22.3459 C.3     1  UNL1        0.1459
     36 C          23.8061   39.9298   23.8085 C.3     1  UNL1        0.0270
     37 C          22.6438   40.6168   21.7062 C.3     1  UNL1        0.0270
@<TRIPOS>BOND
     1    18    19    1
     2    19    10    1
     3    10    14    1
     4    10    11    1
     5    11    12    1
     6    12    13    1
     7    13    14    1
     8    13    17    1
     9    13    20    1
    10    14    15   am
    11    15    16    2
    12    15     1    1
    13     1     9   ar
    14     1     2   ar
    15     2     3   ar
    16     3     8   ar
    17     3     4   ar
    18     4     5   ar
    19     5     6   ar
    20     6     7   ar
    21     7     8   ar
    22     8     9   ar
    23     9    25    1
    24    25    26    1
    25    26    31    1
    26    26    27    1
    27    27    28    1
    28    28    29    1
    29    29    30    1
    30    30    31    1
    31    30    32    1
    32    32    33    2
    33    32    34    2
    34    32    35    1
    35    35    36    1
    36    35    37    1
    37    20    21    1
    38    21    22    1
    39    22    23    1
    40    22    24    1
@<TRIPOS>MOLECULE
ZINC17224356
 37 41 0 0 0
SMALL
GASTEIGER

@<TRIPOS>ATOM
      1 C          23.7504   39.1937   28.5111 C.3     1  UNL1        0.0710
      2 C          23.2716   39.2088   27.0384 C.3     1  UNL1        0.0250
      3 C          23.0428   37.7571   26.5802 C.3     1  UNL1        0.0021
      4 C          24.1458   37.4387   25.5494 C.3     1  UNL1        0.0017
      5 C          25.2920   38.4214   25.8997 C.3     1  UNL1        0.0184
      6 C          24.5411   39.6968   26.3108 C.3     1  UNL1        0.0653
      7 C          24.2405   40.5894   25.1242 C.3     1  UNL1        0.0745
      8 C          25.5324   41.1059   24.4914 C.3     1  UNL1        0.1904
      9 C          26.7187   41.0820   25.4461 C.3     1  UNL1        0.0777
     10 C          26.3257   41.4358   26.8803 C.3     1  UNL1        0.0983
     11 N          25.3045   40.4622   27.3063 N.am    1  UNL1       -0.2824
     12 C          24.8989   40.1805   28.5486 C.2     1  UNL1        0.2247
     13 O          25.3809   40.6471   29.5590 O.2     1  UNL1       -0.2749
     14 O          25.3167   42.4618   24.0505 O.3     1  UNL1       -0.3315
     15 C          26.0548   42.5721   22.8112 C.3     1  UNL1        0.1767
     16 C          25.8368   41.1697   22.1911 C.3     1  UNL1        0.1767
     17 O          25.8398   40.3010   23.3404 O.3     1  UNL1       -0.3315
     18 C          24.2343   37.7962   28.9033 C.3     1  UNL1        0.0155
     19 C          23.3331   37.2350   30.0050 C.3     1  UNL1        0.0009
     20 C          25.6736   37.8801   29.4154 C.3     1  UNL1        0.0650
     21 C          26.2767   36.4995   29.4473 C.2     1  UNL1        0.1507
     22 O          26.3627   35.8545   28.4299 O.2     1  UNL1       -0.2961
     23 C          26.7727   35.9236   30.7486 C.3     1  UNL1        0.0645
     24 C          26.3833   33.5274   31.3389 C.3     1  UNL1        0.0004
     25 C          25.7505   34.9193   31.2844 C.3     1  UNL1        0.0073
     26 C          25.3143   35.3366   32.6904 C.3     1  UNL1        0.0004
     27 C          22.6252   39.6486   29.4427 C.3     1  UNL1        0.0112
     28 C          21.3492   39.8740   28.6291 C.3     1  UNL1        0.0326
     29 C          20.1446   39.3508   29.4141 C.3     1  UNL1        0.1426
     30 O          20.4983   39.2098   30.7914 O.3     1  UNL1       -0.3490
     31 C          19.4114   38.8213   31.6338 C.3     1  UNL1        0.1686
     32 C          19.4759   39.5946   32.9257 C.ar    1  UNL1        0.0073
     33 C          20.6174   39.5463   33.7039 C.ar    1  UNL1       -0.0019
     34 C          20.6783   40.2595   34.8865 C.ar    1  UNL1       -0.0002
     35 C          19.5938   41.0124   35.2961 C.ar    1  UNL1       -0.0000
     36 C          18.4503   41.0565   34.5206 C.ar    1  UNL1       -0.0002
     37 C          18.3914   40.3475   33.3354 C.ar    1  UNL1       -0.0019
@<TRIPOS>BOND
     1    24    25    1
     2    25    26    1
     3    25    23    1
     4    23    21    1
     5    21    22    2
     6    21    20    1
     7    20    18    1
     8    18    19    1
     9    18     1    1
    10     1    12    1
    11     1     2    1
    12     1    27    1
    13     2     6    1
    14     2     3    1
    15     3     4    1
    16     4     5    1
    17     5     6    1
    18     6    11    1
    19     6     7    1
    20     7     8    1
    21     8    17    1
    22     8     9    1
    23     8    14    1
    24     9    10    1
    25    10    11    1
    26    11    12   am
    27    12    13    2
    28    14    15    1
    29    15    16    1
    30    16    17    1
    31    27    28    1
    32    28    29    1
    33    29    30    1
    34    30    31    1
    35    31    32    1
    36    32    37   ar
    37    32    33   ar
    38    33    34   ar
    39    34    35   ar
    40    35    36   ar
    41    36    37   ar
@<TRIPOS>MOLECULE
ZINC12274163
 32 34 0 0 0
SMALL
GASTEIGER

@<TRIPOS>ATOM
      1 C          24.2267   38.5214   26.8639 C.3     1  UNL1        0.1567
      2 C          24.4530   39.9948   26.6428 C.2     1  UNL1        0.3274
      3 O          25.0081   40.3770   25.6400 O.2     1  UNL1       -0.2491
      4 O          24.0378   40.8826   27.5600 O.3     1  UNL1       -0.4479
      5 C          24.8863   42.0382   27.7901 C.3     1  UNL1        0.2085
      6 C          24.0705   43.3174   27.5922 C.3     1  UNL1        0.0474
      7 C          24.8539   44.5102   29.6431 C.3     1  UNL1        0.0001
      8 C          23.6472   43.8684   28.9553 C.3     1  UNL1        0.0038
      9 C          24.2164   38.2266   28.3652 C.3     1  UNL1        0.0497
     10 C          25.2057   37.1311   28.6688 C.ar    1  UNL1       -0.0093
     11 C          26.0457   36.6638   27.6755 C.ar    1  UNL1        0.0080
     12 C          26.9538   35.6582   27.9541 C.ar    1  UNL1        0.0574
     13 C          27.0213   35.1201   29.2272 C.ar    1  UNL1        0.0122
     14 C          26.1814   35.5870   30.2201 C.ar    1  UNL1        0.0119
     15 C          25.2771   36.5972   29.9429 C.ar    1  UNL1        0.0538
     16 CL         24.2271   37.1892   31.1922 Cl      1  UNL1       -0.0826
     17 CL         28.0092   35.0716   26.7069 Cl      1  UNL1       -0.0823
     18 S          22.6338   38.0393   26.1421 S.3     1  UNL1       -0.0759
     19 C          21.5697   37.8649   27.5356 C.ar    1  UNL1        0.1581
     20 N          20.8731   36.8166   27.9496 N.ar    1  UNL1       -0.1363
     21 N          20.1513   36.8615   28.9830 N.ar    1  UNL1       -0.1652
     22 C          20.0451   37.9572   29.7170 C.ar    1  UNL1        0.0183
     23 S          21.1215   39.0534   28.7975 S.2     1  UNL1       -0.0641
     24 N          19.3073   38.1909   30.8737 N.am    1  UNL1       -0.5887
     25 C          18.0143   38.5606   30.7850 C.2     1  UNL1        0.0826
     26 O          17.3960   38.3676   29.7561 O.2     1  UNL1       -0.3129
     27 C          17.3479   39.2005   31.9387 C.ar    1  UNL1        0.0156
     28 C          15.9614   39.3631   31.9458 C.ar    1  UNL1        0.0012
     29 C          15.3452   39.9557   33.0286 C.ar    1  UNL1        0.0000
     30 C          16.0995   40.3996   34.1003 C.ar    1  UNL1        0.0000
     31 C          17.4745   40.2465   34.0970 C.ar    1  UNL1        0.0000
     32 C          18.1028   39.6502   33.0235 C.ar    1  UNL1        0.0012
@<TRIPOS>UNITY_ATOM_ATTR
24 1
charge -1
@<TRIPOS>BOND
     1     7     8    1
     2     8     6    1
     3     6     5    1
     4     5     4    1
     5     4     2    1
     6     2     3    2
     7     2     1    1
     8     1     9    1
     9     1    18    1
    10     9    10    1
    11    10    15   ar
    12    10    11   ar
    13    11    12   ar
    14    12    13   ar
    15    12    17    1
    16    13    14   ar
    17    14    15   ar
    18    15    16    1
    19    18    19    1
    20    19    23   ar
    21    19    20   ar
    22    20    21   ar
    23    21    22   ar
    24    22    23   ar
    25    22    24    1
    26    24    25    1
    27    25    26    2
    28    25    27    1
    29    27    32   ar
    30    27    28   ar
    31    28    29   ar
    32    29    30   ar
    33    30    31   ar
    34    31    32   ar
@<TRIPOS>MOLECULE
ZINC08384239
 35 36 0 0 0
SMALL
GASTEIGER

@<TRIPOS>ATOM
      1 C          24.5175   39.2539   27.9406 C.2     1  UNL1        0.1458
      2 C          25.3525   39.6528   28.9112 C.2     1  UNL1        0.1259
      3 O          25.6188   38.8683   29.9741 O.2     1  UNL1       -0.4586
      4 C          25.2554   37.4625   29.8461 C.3     1  UNL1        0.2592
      5 C          26.1770   36.8108   28.8477 C.2     1  UNL1        0.1458
      6 C          25.7961   36.6087   27.5779 C.2     1  UNL1        0.1259
      7 O          24.5747   36.9782   27.1444 O.2     1  UNL1       -0.4586
      8 C          23.8419   37.9079   27.9950 C.3     1  UNL1        0.2592
      9 O          23.9110   37.4082   29.3408 O.3     1  UNL1       -0.2870
     10 C          22.3843   38.0060   27.5403 C.3     1  UNL1        0.0631
     11 C          22.3149   37.8721   26.0178 C.3     1  UNL1        0.0064
     12 C          21.5713   36.8836   28.1885 C.3     1  UNL1        0.0064
     13 C          21.8091   39.3602   27.9600 C.3     1  UNL1        0.0064
     14 C          26.7540   35.9552   26.6154 C.3     1  UNL1        0.0509
     15 C          27.0102   34.5114   27.0520 C.3     1  UNL1        0.0075
     16 C          26.1496   35.9633   25.2099 C.3     1  UNL1        0.0075
     17 C          28.0748   36.7275   26.6070 C.3     1  UNL1        0.0075
     18 C          25.3440   36.7463   31.1952 C.3     1  UNL1        0.0631
     19 C          26.6803   37.0783   31.8621 C.3     1  UNL1        0.0064
     20 C          24.1961   37.2092   32.0947 C.3     1  UNL1        0.0064
     21 C          25.2439   35.2351   30.9778 C.3     1  UNL1        0.0064
     22 C          26.0068   41.0067   28.8111 C.3     1  UNL1        0.0509
     23 C          24.9335   42.0782   28.6093 C.3     1  UNL1        0.0075
     24 C          26.7804   41.2957   30.0990 C.3     1  UNL1        0.0075
     25 C          26.9709   41.0206   27.6231 C.3     1  UNL1        0.0075
     26 C          24.2664   40.1131   26.8441 C.2     1  UNL1        0.3456
     27 O          23.5035   41.0525   26.9697 O.2     1  UNL1       -0.2449
     28 O          24.8732   39.8905   25.6598 O.3     1  UNL1       -0.4455
     29 C          23.8999   40.1110   23.4587 C.3     1  UNL1        0.0513
     30 C          24.6106   40.8245   24.6105 C.3     1  UNL1        0.2089
     31 C          27.4692   36.4037   29.2581 C.2     1  UNL1        0.3456
     32 O          28.3620   37.2241   29.3587 O.2     1  UNL1       -0.2449
     33 O          27.7107   35.1061   29.5377 O.3     1  UNL1       -0.4455
     34 C          28.9862   34.7898   30.0990 C.3     1  UNL1        0.2089
     35 C          28.7917   33.9902   31.3889 C.3     1  UNL1        0.0513
@<TRIPOS>BOND
     1    29    30    1
     2    30    28    1
     3    28    26    1
     4    26    27    2
     5    26     1    1
     6     1     8    1
     7     1     2    2
     8     2     3    1
     9     2    22    1
    10     3     4    1
    11     4     9    1
    12     4     5    1
    13     4    18    1
    14     5     6    2
    15     5    31    1
    16     6     7    1
    17     6    14    1
    18     7     8    1
    19     8     9    1
    20     8    10    1
    21    10    11    1
    22    10    12    1
    23    10    13    1
    24    14    15    1
    25    14    16    1
    26    14    17    1
    27    31    32    2
    28    31    33    1
    29    33    34    1
    30    34    35    1
    31    18    19    1
    32    18    20    1
    33    18    21    1
    34    22    23    1
    35    22    24    1
    36    22    25    1
@<TRIPOS>MOLECULE
ZINC25770449
 35 38 0 0 0
SMALL
GASTEIGER

@<TRIPOS>ATOM
      1 C          14.5268   37.4780   28.0178 C.3     1  UNL1        0.2544
      2 C          11.6594   38.0848   25.7891 C.ar    1  UNL1        0.1725
      3 N          12.8875   37.9982   26.2617 N.ar    1  UNL1       -0.2241
      4 C          13.1192   37.5736   27.4881 C.ar    1  UNL1        0.1112
      5 C          12.0623   37.2195   28.2597 C.ar    1  UNL1        0.0566
      6 S          10.7099   37.5371   27.1359 S.2     1  UNL1       -0.0505
      7 N          11.2336   38.5068   24.5334 N.am    1  UNL1       -0.2172
      8 C          10.6915   37.6221   23.6733 C.2     1  UNL1        0.2350
      9 O          10.5748   36.4582   23.9937 O.2     1  UNL1       -0.2741
     10 C          10.2303   38.0791   22.3133 C.3     1  UNL1        0.0956
     11 C          10.5313   40.8116   24.7148 C.ar    1  UNL1       -0.0081
     12 C          10.6705   42.1372   24.3522 C.ar    1  UNL1       -0.0030
     13 C          11.6346   42.5061   23.4324 C.ar    1  UNL1       -0.0002
     14 C          12.4663   41.5507   22.8770 C.ar    1  UNL1        0.0013
     15 C          12.3359   40.2247   23.2397 C.ar    1  UNL1        0.0150
     16 C          11.3684   39.8509   24.1634 C.ar    1  UNL1        0.0559
     17 C           9.7288   41.1268   27.0398 C.3     1  UNL1        0.0051
     18 C           9.4758   40.4094   25.7125 C.3     1  UNL1        0.0276
     19 O          14.5542   37.9173   29.4015 O.3     1  UNL1       -0.4418
     20 C          15.5479   38.7463   29.7581 C.2     1  UNL1        0.3178
     21 O          16.6973   38.3846   29.6699 O.2     1  UNL1       -0.2501
     22 C          15.2296   40.1259   30.2743 C.3     1  UNL1        0.1177
     23 C          14.2128   40.0224   31.4127 C.3     1  UNL1        0.0808
     24 C          14.8396   39.3085   32.5826 C.2     1  UNL1        0.1736
     25 O          14.3466   38.2831   33.0020 O.2     1  UNL1       -0.2913
     26 C          16.0500   39.8557   33.2160 C.ar    1  UNL1        0.0344
     27 C          15.9984   41.0735   33.9023 C.ar    1  UNL1        0.0025
     28 C          17.1379   41.5702   34.4912 C.ar    1  UNL1       -0.0045
     29 C          18.3435   40.8815   34.4027 C.ar    1  UNL1       -0.0261
     30 C          18.4027   39.6814   33.7263 C.ar    1  UNL1       -0.0260
     31 C          17.2610   39.1674   33.1324 C.ar    1  UNL1       -0.0017
     32 C          19.6739   38.8822   33.6029 C.3     1  UNL1        0.0260
     33 C          20.8890   39.7537   33.9133 C.3     1  UNL1        0.0050
     34 C          20.6494   40.4567   35.2546 C.3     1  UNL1        0.0050
     35 C          19.5496   41.4987   35.0625 C.3     1  UNL1        0.0260
@<TRIPOS>BOND
     1    17    18    1
     2    18    11    1
     3    11    16   ar
     4    11    12   ar
     5    12    13   ar
     6    13    14   ar
     7    14    15   ar
     8    15    16   ar
     9    16     7    1
    10     7     2    1
    11     7     8   am
    12     2     6   ar
    13     2     3   ar
    14     3     4   ar
    15     4     5   ar
    16     4     1    1
    17     5     6   ar
    18     1    19    1
    19    19    20    1
    20    20    21    2
    21    20    22    1
    22    22    23    1
    23    23    24    1
    24    24    25    2
    25    24    26    1
    26    26    31   ar
    27    26    27   ar
    28    27    28   ar
    29    28    29   ar
    30    29    35    1
    31    29    30   ar
    32    30    31   ar
    33    30    32    1
    34    32    33    1
    35    33    34    1
    36    34    35    1
    37     8     9    2
    38     8    10    1
@<TRIPOS>MOLECULE
ZINC09699818
 30 31 0 0 0
SMALL
GASTEIGER

@<TRIPOS>ATOM
      1 C          14.0532   38.5560   29.8271 C.3     1  UNL1        0.1015
      2 N          15.1476   38.9528   30.7167 N.am    1  UNL1       -0.2228
      3 C          16.4409   38.6408   30.5181 C.2     1  UNL1        0.2560
      4 O          16.8797   37.9960   29.5868 O.2     1  UNL1       -0.2695
      5 C          17.2383   39.2158   31.6197 C.ar    1  UNL1        0.0706
      6 C          16.3151   39.8690   32.4640 C.ar    1  UNL1        0.0706
      7 C          16.7620   40.5134   33.6072 C.ar    1  UNL1        0.0736
      8 C          18.1174   40.5115   33.9140 C.ar    1  UNL1        0.0797
      9 C          19.0221   39.8713   33.0867 C.ar    1  UNL1        0.0797
     10 C          18.5876   39.2215   31.9376 C.ar    1  UNL1        0.0736
     11 CL         19.7298   38.4199   30.9048 Cl      1  UNL1       -0.0812
     12 CL         20.7116   39.8800   33.4859 Cl      1  UNL1       -0.0805
     13 CL         18.6786   41.3175   35.3456 Cl      1  UNL1       -0.0805
     14 CL         15.6332   41.3199   34.6508 Cl      1  UNL1       -0.0812
     15 C          14.9903   39.6720   31.8426 C.2     1  UNL1        0.2560
     16 O          13.9350   40.0896   32.2754 O.2     1  UNL1       -0.2695
     17 C          14.4456   37.2849   29.0714 C.3     1  UNL1        0.0220
     18 C          13.6593   37.2072   27.7613 C.3     1  UNL1        0.0023
     19 C          12.1600   37.1966   28.0662 C.3     1  UNL1        0.0117
     20 C          11.3893   36.7550   26.8206 C.3     1  UNL1        0.1096
     21 C          11.2051   37.9336   25.8997 C.2     1  UNL1        0.3170
     22 O          10.6672   38.9374   26.3032 O.2     1  UNL1       -0.2501
     23 O          11.6387   37.8681   24.6310 O.3     1  UNL1       -0.4457
     24 C          10.6494   37.5697   23.6109 C.3     1  UNL1        0.2403
     25 C          10.2631   38.8585   22.8826 C.3     1  UNL1        0.1894
     26 O          11.4060   39.7107   22.7837 O.3     1  UNL1       -0.3498
     27 C          11.4104   40.5450   21.6235 C.3     1  UNL1        0.1423
     28 C          12.5047   41.6052   21.7619 C.3     1  UNL1        0.0321
     29 C          10.3492   42.8662   21.6840 C.3     1  UNL1        0.0001
     30 C          11.8627   42.9896   21.8716 C.3     1  UNL1        0.0026
@<TRIPOS>BOND
     1    29    30    1
     2    30    28    1
     3    28    27    1
     4    27    26    1
     5    26    25    1
     6    25    24    1
     7    24    23    1
     8    23    21    1
     9    21    22    2
    10    21    20    1
    11    20    19    1
    12    19    18    1
    13    18    17    1
    14    17     1    1
    15     1     2    1
    16     2    15   am
    17     2     3   am
    18     3     4    2
    19     3     5    1
    20     5    10   ar
    21     5     6   ar
    22     6     7   ar
    23     6    15    1
    24     7     8   ar
    25     7    14    1
    26     8     9   ar
    27     8    13    1
    28     9    10   ar
    29     9    12    1
    30    10    11    1
    31    15    16    2
@<TRIPOS>MOLECULE
ZINC29875345
 34 36 0 0 0
SMALL
GASTEIGER

@<TRIPOS>ATOM
      1 C          15.2836   38.1169   29.8060 C.ar    1  UNL1        0.1885
      2 N          15.5055   37.2040   28.9031 N.ar    1  UNL1       -0.1290
      3 N          14.4014   36.8623   28.3407 N.ar    1  UNL1       -0.1223
      4 C          13.4062   37.5406   28.8631 C.ar    1  UNL1        0.1933
      5 N          13.9379   38.3597   29.8173 N.ar    1  UNL1       -0.2867
      6 C          16.3181   38.7800   30.6785 C.3     1  UNL1        0.2703
      7 O          17.6242   38.4662   30.1910 O.3     1  UNL1       -0.4676
      8 C          19.2917   39.3471   34.6928 C.3     1  UNL1        0.0311
      9 C          19.5228   39.1653   33.2147 C.ar    1  UNL1       -0.0189
     10 C          20.8014   39.2665   32.6978 C.ar    1  UNL1       -0.0044
     11 C          21.0167   39.1006   31.3424 C.ar    1  UNL1       -0.0016
     12 C          19.9551   38.8267   30.5015 C.ar    1  UNL1        0.0115
     13 C          18.6708   38.7299   31.0168 C.ar    1  UNL1        0.1348
     14 C          18.4573   38.8972   32.3775 C.ar    1  UNL1        0.0323
     15 C          20.1914   38.6393   29.0250 C.3     1  UNL1        0.0253
     16 C          20.8723   39.8854   28.4554 C.3     1  UNL1        0.0048
     17 C          21.0894   37.4208   28.8028 C.3     1  UNL1        0.0048
     18 C          13.2171   39.3068   30.6716 C.3     1  UNL1        0.1357
     19 C          12.4971   38.5537   31.7605 C.2     1  UNL1       -0.0017
     20 C          11.2033   38.3644   31.6807 C.2     1  UNL1       -0.0029
     21 S          11.7060   37.4175   28.4169 S.3     1  UNL1       -0.0738
     22 C          11.8710   36.9529   26.6754 C.3     1  UNL1        0.0909
     23 C          11.9338   38.2161   25.8144 C.3     1  UNL1        0.1679
     24 S          10.7385   38.0821   24.4564 S.O2    1  UNL1        0.0092
     25 O          11.2940   37.3274   23.3882 O.2     1  UNL1       -0.1686
     26 O           9.4491   37.7734   24.9678 O.2     1  UNL1       -0.1686
     27 C          10.5900   39.7188   23.8208 C.ar    1  UNL1        0.1014
     28 C          10.8900   39.9758   22.4959 C.ar    1  UNL1        0.0138
     29 C          10.7697   41.2589   21.9964 C.ar    1  UNL1       -0.0206
     30 C          10.3577   42.2870   22.8238 C.ar    1  UNL1       -0.0045
     31 C          10.0623   42.0309   24.1496 C.ar    1  UNL1       -0.0033
     32 C          10.1789   40.7468   24.6483 C.ar    1  UNL1       -0.0048
     33 C           9.8573   40.4678   26.0939 C.3     1  UNL1        0.0324
     34 C          11.0922   41.5381   20.5510 C.3     1  UNL1        0.0311
@<TRIPOS>BOND
     1     8     9    1
     2     9    14   ar
     3     9    10   ar
     4    10    11   ar
     5    11    12   ar
     6    12    13   ar
     7    12    15    1
     8    13    14   ar
     9    13     7    1
    10     7     6    1
    11     6     1    1
    12     1     5   ar
    13     1     2   ar
    14     2     3   ar
    15     3     4   ar
    16     4     5   ar
    17     4    21    1
    18     5    18    1
    19    18    19    1
    20    19    20    2
    21    21    22    1
    22    22    23    1
    23    23    24    1
    24    24    25    2
    25    24    26    2
    26    24    27    1
    27    27    32   ar
    28    27    28   ar
    29    28    29   ar
    30    29    30   ar
    31    29    34    1
    32    30    31   ar
    33    31    32   ar
    34    32    33    1
    35    15    16    1
    36    15    17    1
@<TRIPOS>MOLECULE
ZINC28296574
 35 38 0 0 0
SMALL
GASTEIGER

@<TRIPOS>ATOM
      1 C          25.9598   36.5064   26.1440 C.3     1  UNL1        0.0575
      2 C          25.8261   37.4396   27.3490 C.3     1  UNL1        0.2449
      3 C          25.8382   38.8715   26.8793 C.2     1  UNL1        0.2699
      4 O          26.8703   39.3716   26.4846 O.2     1  UNL1       -0.2706
      5 N          24.7021   39.5965   26.8979 N.am    1  UNL1       -0.2509
      6 C          23.5476   39.0742   27.4956 C.ar    1  UNL1        0.0545
      7 C          22.5409   38.5336   26.7068 C.ar    1  UNL1        0.0180
      8 C          21.4034   38.0186   27.2967 C.ar    1  UNL1        0.0382
      9 C          21.2664   38.0414   28.6769 C.ar    1  UNL1        0.1388
     10 C          22.2718   38.5814   29.4655 C.ar    1  UNL1        0.0382
     11 C          23.4097   39.0967   28.8770 C.ar    1  UNL1        0.0180
     12 O          20.1460   37.5346   29.2571 O.3     1  UNL1       -0.4714
     13 C          19.5457   38.3103   30.2961 C.3     1  UNL1        0.2525
     14 C          24.6744   40.9304   26.2930 C.3     1  UNL1        0.1312
     15 C          24.6879   41.9749   27.3794 C.ar    1  UNL1        0.0276
     16 C          23.6624   42.7195   27.8603 C.ar    1  UNL1        0.0044
     17 C          23.9105   43.6273   28.8728 C.ar    1  UNL1        0.0072
     18 C          25.1718   43.7459   29.3549 C.ar    1  UNL1        0.0352
     19 S          26.0569   42.5466   28.3724 S.2     1  UNL1       -0.0891
     20 O          26.9193   37.2223   28.2433 O.3     1  UNL1       -0.4397
     21 C          26.6401   36.6175   29.4166 C.2     1  UNL1        0.3418
     22 O          26.5042   37.2821   30.4263 O.2     1  UNL1       -0.2449
     23 C          26.5050   35.2074   29.4727 C.2     1  UNL1        0.0820
     24 C          27.3018   34.4217   28.7155 C.2     1  UNL1        0.0097
     25 C          27.1618   32.9606   28.7737 C.ar    1  UNL1        0.0363
     26 C          27.1212   32.3064   30.0100 C.ar    1  UNL1        0.0326
     27 C          26.9855   30.9345   30.0557 C.ar    1  UNL1        0.1401
     28 C          26.9015   30.2007   28.8814 C.ar    1  UNL1        0.0308
     29 C          26.9469   30.8345   27.6536 C.ar    1  UNL1        0.0437
     30 C          27.0738   32.2118   27.5886 C.ar    1  UNL1        0.1399
     31 O          27.1091   32.8474   26.3895 O.3     1  UNL1       -0.4482
     32 C          27.3806   32.0427   25.2384 C.3     1  UNL1        0.3612
     33 O          26.5501   30.8765   25.2897 O.3     1  UNL1       -0.3108
     34 C          26.8610   30.0161   26.3898 C.3     1  UNL1        0.1756
     35 F          26.9394   30.3024   31.2488 F       1  UNL1       -0.2042
@<TRIPOS>BOND
     1     1     2    1
     2     2     3    1
     3     2    20    1
     4     3     4    2
     5     3     5   am
     6     5    14    1
     7     5     6    1
     8    14    15    1
     9    15    19   ar
    10    15    16   ar
    11    16    17   ar
    12    17    18   ar
    13    18    19   ar
    14     6    11   ar
    15     6     7   ar
    16     7     8   ar
    17     8     9   ar
    18     9    10   ar
    19     9    12    1
    20    10    11   ar
    21    12    13    1
    22    20    21    1
    23    21    22    2
    24    21    23    1
    25    23    24    2
    26    24    25    1
    27    25    30   ar
    28    25    26   ar
    29    26    27   ar
    30    27    28   ar
    31    27    35    1
    32    28    29   ar
    33    29    34    1
    34    29    30   ar
    35    30    31    1
    36    31    32    1
    37    32    33    1
    38    33    34    1
@<TRIPOS>MOLECULE
ZINC08980291
 36 39 0 0 0
SMALL
GASTEIGER

@<TRIPOS>ATOM
      1 C          23.0619   38.2612   28.7483 C.ar    1  UNL1        0.1151
      2 C          24.1992   38.6108   27.9982 C.ar    1  UNL1        0.1470
      3 N          25.4080   38.3215   28.4408 N.ar    1  UNL1       -0.2279
      4 C          25.5502   37.6793   29.6071 C.ar    1  UNL1        0.1003
      5 C          26.8239   37.3510   30.1016 C.ar    1  UNL1        0.0207
      6 C          26.9389   36.6982   31.2906 C.ar    1  UNL1        0.0016
      7 C          25.8093   36.3488   32.0279 C.ar    1  UNL1        0.0016
      8 C          24.5600   36.6507   31.5798 C.ar    1  UNL1        0.0206
      9 C          24.4018   37.3242   30.3567 C.ar    1  UNL1        0.0987
     10 N          23.1843   37.6329   29.8925 N.ar    1  UNL1       -0.2437
     11 N          24.0491   39.2700   26.7875 N.pl3   1  UNL1       -0.2888
     12 C          24.0143   38.3168   25.6696 C.3     1  UNL1        0.1136
     13 C          23.7685   39.0755   24.3633 C.3     1  UNL1        0.1123
     14 N          24.8323   40.0707   24.1700 N.pl3   1  UNL1       -0.3043
     15 C          24.8671   41.0239   25.2880 C.3     1  UNL1        0.1123
     16 C          25.1130   40.2653   26.5943 C.3     1  UNL1        0.1136
     17 C          24.6811   40.7347   22.9506 C.ar    1  UNL1        0.0436
     18 C          23.4105   41.0037   22.4572 C.ar    1  UNL1        0.0142
     19 C          23.2647   41.6608   21.2515 C.ar    1  UNL1        0.0009
     20 C          24.3816   42.0506   20.5349 C.ar    1  UNL1       -0.0045
     21 C          25.6476   41.7843   21.0231 C.ar    1  UNL1       -0.0246
     22 C          25.8007   41.1325   22.2313 C.ar    1  UNL1       -0.0125
     23 C          27.1808   40.8483   22.7654 C.3     1  UNL1        0.0320
     24 C          26.8617   42.2109   20.2388 C.3     1  UNL1        0.0307
     25 C          21.6900   38.6064   28.2291 C.3     1  UNL1        0.2319
     26 C          21.0037   39.5321   29.2001 C.2     1  UNL1        0.3369
     27 O          21.2876   40.7064   29.2189 O.2     1  UNL1       -0.2485
     28 O          20.0728   39.0533   30.0404 O.3     1  UNL1       -0.4475
     29 C          20.2580   39.3263   31.4543 C.3     1  UNL1        0.2085
     30 C          19.0285   38.8508   32.2309 C.3     1  UNL1        0.0474
     31 C          19.3442   38.8382   33.7279 C.3     1  UNL1        0.0038
     32 C          20.6445   39.6035   33.9814 C.3     1  UNL1        0.0001
     33 C          19.2939   41.4578   34.9714 C.3     1  UNL1        0.0000
     34 C          20.4730   40.5104   35.2017 C.3     1  UNL1        0.0000
     35 C          20.8972   37.3750   28.0812 C.1     1  UNL1        0.0898
     36 N          20.2853   36.4247   27.9673 N.1     1  UNL1       -0.1949
@<TRIPOS>BOND
     1    33    34    1
     2    34    32    1
     3    32    31    1
     4    31    30    1
     5    30    29    1
     6    29    28    1
     7    28    26    1
     8    26    27    2
     9    26    25    1
    10    25    35    1
    11    25     1    1
    12    35    36    3
    13     1    10   ar
    14     1     2   ar
    15     2     3   ar
    16     2    11    1
    17     3     4   ar
    18     4     9   ar
    19     4     5   ar
    20     5     6   ar
    21     6     7   ar
    22     7     8   ar
    23     8     9   ar
    24     9    10   ar
    25    11    16    1
    26    11    12    1
    27    12    13    1
    28    13    14    1
    29    14    15    1
    30    14    17    1
    31    15    16    1
    32    17    22   ar
    33    17    18   ar
    34    18    19   ar
    35    19    20   ar
    36    20    21   ar
    37    21    22   ar
    38    21    24    1
    39    22    23    1
@<TRIPOS>MOLECULE
ZINC09360754
 34 36 0 0 0
SMALL
GASTEIGER

@<TRIPOS>ATOM
      1 C          20.2142   38.6807   29.5943 C.ar    1  UNL1        0.0089
      2 C          21.2725   38.3509   30.3493 C.ar    1  UNL1        0.0090
      3 C          22.5605   38.1385   29.7117 C.ar    1  UNL1        0.0802
      4 C          22.5659   38.3068   28.3140 C.ar    1  UNL1        0.1171
      5 S          20.8832   38.7305   27.9426 S.2     1  UNL1       -0.0721
      6 N          23.6665   38.1465   27.5896 N.ar    1  UNL1       -0.2157
      7 C          24.8093   37.8199   28.1586 C.ar    1  UNL1        0.1744
      8 N          24.8917   37.6323   29.5080 N.ar    1  UNL1       -0.2756
      9 C          23.8150   37.7842   30.3008 C.ar    1  UNL1        0.2642
     10 O          23.9064   37.6172   31.5049 O.2     1  UNL1       -0.2669
     11 C          18.6881   38.7364   31.5481 C.3     1  UNL1        0.0056
     12 C          18.7982   38.9458   30.0364 C.3     1  UNL1        0.0330
     13 C          26.1776   37.2638   30.1052 C.3     1  UNL1        0.1110
     14 C          26.2757   35.7402   30.2048 C.3     1  UNL1        0.0246
     15 C          27.1159   35.3619   31.4263 C.3     1  UNL1        0.0019
     16 C          27.0346   36.4804   32.4673 C.3     1  UNL1        0.0001
     17 C          26.5805   34.0626   32.0310 C.3     1  UNL1        0.0001
     18 S          26.2488   37.6156   27.1633 S.3     1  UNL1       -0.0674
     19 C          26.1356   39.1028   26.1379 C.3     1  UNL1        0.1503
     20 C          26.1197   40.3228   27.0224 C.2     1  UNL1        0.2409
     21 O          26.7671   40.3367   28.0481 O.2     1  UNL1       -0.2736
     22 N          25.3863   41.3985   26.6737 N.am    1  UNL1       -0.2542
     23 C          25.3716   42.5329   27.4963 C.ar    1  UNL1        0.0880
     24 C          26.3883   43.4721   27.4038 C.ar    1  UNL1        0.0180
     25 C          26.3690   44.5926   28.2126 C.ar    1  UNL1        0.0015
     26 C          25.3436   44.7755   29.1219 C.ar    1  UNL1        0.0032
     27 C          24.3298   43.8412   29.2235 C.ar    1  UNL1        0.0382
     28 C          24.3392   42.7176   28.4128 C.ar    1  UNL1        0.1523
     29 O          23.3432   41.7973   28.5121 O.3     1  UNL1       -0.4702
     30 C          22.0020   42.2905   28.5152 C.3     1  UNL1        0.2525
     31 C          24.6046   41.3817   25.4350 C.3     1  UNL1        0.1145
     32 C          25.4121   42.0379   24.3133 C.3     1  UNL1        0.1272
     33 C          24.6011   42.0813   23.0855 C.1     1  UNL1        0.0750
     34 N          23.9753   42.1149   22.1381 N.1     1  UNL1       -0.1958
@<TRIPOS>BOND
     1    11    12    1
     2    12     1    1
     3     1     5   ar
     4     1     2   ar
     5     2     3   ar
     6     3     9   ar
     7     3     4   ar
     8     4     5   ar
     9     4     6   ar
    10     6     7   ar
    11     7     8   ar
    12     7    18    1
    13     8     9   ar
    14     8    13    1
    15     9    10    2
    16    13    14    1
    17    14    15    1
    18    15    16    1
    19    15    17    1
    20    18    19    1
    21    19    20    1
    22    20    21    2
    23    20    22   am
    24    22    31    1
    25    22    23    1
    26    31    32    1
    27    32    33    1
    28    33    34    3
    29    23    28   ar
    30    23    24   ar
    31    24    25   ar
    32    25    26   ar
    33    26    27   ar
    34    27    28   ar
    35    28    29    1
    36    29    30    1
@<TRIPOS>MOLECULE
ZINC08715718
 34 37 0 0 0
SMALL
GASTEIGER

@<TRIPOS>ATOM
      1 N          21.0465   38.4714   28.9019 N.am    1  UNL1       -0.2381
      2 C          22.1934   39.3391   28.6091 C.3     1  UNL1        0.1116
      3 C          23.1175   38.5058   27.6936 C.3     1  UNL1        0.1283
      4 C          22.1151   37.5247   27.0428 C.3     1  UNL1        0.0985
      5 C          20.9782   37.4441   28.0377 C.2     1  UNL1        0.2314
      6 O          20.1275   36.5799   28.0518 O.2     1  UNL1       -0.2745
      7 C          18.1241   38.8730   31.0250 C.ar    1  UNL1        0.0897
      8 C          18.7736   39.1572   32.1939 C.ar    1  UNL1        0.0572
      9 S          20.4765   39.0744   31.6551 S.2     1  UNL1       -0.0506
     10 C          20.1497   38.6817   29.9423 C.ar    1  UNL1        0.1688
     11 N          18.8305   38.6448   29.9280 N.ar    1  UNL1       -0.2237
     12 C          12.3703   38.6921   30.8671 C.3     1  UNL1        0.0310
     13 C          13.8760   38.7393   30.9085 C.ar    1  UNL1       -0.0218
     14 C          14.6084   38.3425   29.8041 C.ar    1  UNL1       -0.0042
     15 C          15.9874   38.3840   29.8361 C.ar    1  UNL1        0.0012
     16 C          16.6422   38.8265   30.9843 C.ar    1  UNL1        0.0182
     17 C          15.8991   39.2197   32.0961 C.ar    1  UNL1        0.0012
     18 C          14.5204   39.1798   32.0506 C.ar    1  UNL1       -0.0042
     19 C          23.7730   39.3765   26.6527 C.2     1  UNL1        0.3189
     20 O          23.2240   39.5696   25.5939 O.2     1  UNL1       -0.2500
     21 O          24.9667   39.9374   26.9020 O.3     1  UNL1       -0.4442
     22 C          25.1938   40.4338   28.2475 C.3     1  UNL1        0.2308
     23 C          26.3622   39.7062   28.8609 C.2     1  UNL1        0.2128
     24 O          27.4651   40.2101   28.8473 O.2     1  UNL1       -0.2875
     25 C          26.1650   38.3847   29.4759 C.ar    1  UNL1        0.0384
     26 C          25.1996   38.2109   30.4735 C.ar    1  UNL1        0.0038
     27 C          25.0170   36.9688   31.0419 C.ar    1  UNL1        0.0115
     28 C          25.7944   35.8961   30.6356 C.ar    1  UNL1        0.0577
     29 C          26.7558   36.0620   29.6515 C.ar    1  UNL1        0.0115
     30 C          26.9458   37.2972   29.0704 C.ar    1  UNL1        0.0038
     31 CL         25.5624   34.3368   31.3624 Cl      1  UNL1       -0.0822
     32 C          25.4974   41.9325   28.1936 C.3     1  UNL1        0.0693
     33 C          24.2316   42.6953   27.7977 C.3     1  UNL1        0.0991
     34 CL         23.7149   43.7522   29.1641 Cl      1  UNL1       -0.1136
@<TRIPOS>BOND
     1    12    13    1
     2    13    18   ar
     3    13    14   ar
     4    14    15   ar
     5    15    16   ar
     6    16    17   ar
     7    16     7    1
     8    17    18   ar
     9     7    11   ar
    10     7     8   ar
    11     8     9   ar
    12     9    10   ar
    13    10    11   ar
    14    10     1    1
    15     1     5   am
    16     1     2    1
    17     2     3    1
    18     3     4    1
    19     3    19    1
    20     4     5    1
    21     5     6    2
    22    19    20    2
    23    19    21    1
    24    21    22    1
    25    22    32    1
    26    22    23    1
    27    32    33    1
    28    33    34    1
    29    23    24    2
    30    23    25    1
    31    25    30   ar
    32    25    26   ar
    33    26    27   ar
    34    27    28   ar
    35    28    29   ar
    36    28    31    1
    37    29    30   ar
@<TRIPOS>MOLECULE
ZINC29868527
 33 35 0 0 0
SMALL
GASTEIGER

@<TRIPOS>ATOM
      1 C          10.3965   39.8672   25.0024 C.ar    1  UNL1        0.1256
      2 C           9.2431   39.2799   24.5125 C.ar    1  UNL1        0.0202
      3 C           8.9791   37.9451   24.7624 C.ar    1  UNL1        0.0016
      4 C           9.8653   37.1902   25.5028 C.ar    1  UNL1        0.0065
      5 C          11.0307   37.7763   26.0001 C.ar    1  UNL1        0.0770
      6 C          11.2936   39.1229   25.7396 C.ar    1  UNL1        0.0266
      7 S          10.7231   41.5680   24.6775 S.O2    1  UNL1        0.0769
      8 O          12.0783   41.6483   24.2580 O.2     1  UNL1       -0.1497
      9 O          10.2259   42.2969   25.7914 O.2     1  UNL1       -0.1497
     10 N           9.7978   42.0041   23.3752 N.pl3   1  UNL1       -0.1853
     11 C          10.4034   42.2597   22.1420 C.ar    1  UNL1        0.0797
     12 C          10.5469   43.5666   21.6945 C.ar    1  UNL1        0.0170
     13 C          11.1507   43.8161   20.4777 C.ar    1  UNL1        0.0014
     14 C          11.6026   42.7661   19.6995 C.ar    1  UNL1        0.0010
     15 C          11.4571   41.4630   20.1388 C.ar    1  UNL1        0.0127
     16 C          10.8585   41.2062   21.3578 C.ar    1  UNL1        0.0725
     17 CL         10.6749   39.5702   21.9085 Cl      1  UNL1       -0.0809
     18 C           8.3443   42.1221   23.5159 C.3     1  UNL1        0.1419
     19 C           6.6536   43.8527   23.1880 C.2     1  UNL1       -0.0031
     20 C           7.9253   43.5406   23.2278 C.2     1  UNL1       -0.0029
     21 C          11.9844   36.9742   26.7934 C.2     1  UNL1        0.3416
     22 O          12.0281   35.7684   26.6526 O.2     1  UNL1       -0.2449
     23 O          12.8055   37.5796   27.6730 O.3     1  UNL1       -0.4404
     24 C          12.3783   37.6100   29.0605 C.3     1  UNL1        0.2376
     25 C          13.4943   38.1486   29.9180 C.ar    1  UNL1        0.0488
     26 C          14.7853   38.1902   29.4223 C.ar    1  UNL1        0.0022
     27 C          15.8117   38.6823   30.2014 C.ar    1  UNL1        0.0102
     28 C          15.5468   39.1393   31.4942 C.ar    1  UNL1        0.0707
     29 C          14.2428   39.0952   31.9902 C.ar    1  UNL1        0.0397
     30 C          13.2222   38.6055   31.1975 C.ar    1  UNL1        0.1403
     31 F          11.9581   38.5670   31.6728 F       1  UNL1       -0.2044
     32 C          16.6083   39.6518   32.3072 C.1     1  UNL1        0.1005
     33 N          17.4505   40.0583   32.9522 N.1     1  UNL1       -0.1908
@<TRIPOS>BOND
     1    19    20    2
     2    20    18    1
     3    18    10    1
     4    10    11    1
     5    10     7    1
     6    11    16   ar
     7    11    12   ar
     8    12    13   ar
     9    13    14   ar
    10    14    15   ar
    11    15    16   ar
    12    16    17    1
    13     7     8    2
    14     7     9    2
    15     7     1    1
    16     1     6   ar
    17     1     2   ar
    18     2     3   ar
    19     3     4   ar
    20     4     5   ar
    21     5     6   ar
    22     5    21    1
    23    21    22    2
    24    21    23    1
    25    23    24    1
    26    24    25    1
    27    25    30   ar
    28    25    26   ar
    29    26    27   ar
    30    27    28   ar
    31    28    29   ar
    32    28    32    1
    33    29    30   ar
    34    30    31    1
    35    32    33    3
@<TRIPOS>MOLECULE
ZINC14151586
 38 40 0 0 0
SMALL
GASTEIGER

@<TRIPOS>ATOM
      1 C          25.8795   39.3815   24.2048 C.2     1  UNL1        0.0160
      2 C          25.8196   40.2320   23.1182 C.2     1  UNL1        0.1220
      3 N          24.0515   39.9051   27.2502 N.ar    1  UNL1       -0.3135
      4 C          24.9955   40.8860   27.3869 C.ar    1  UNL1        0.0414
      5 C          25.8110   40.8662   26.3204 C.ar    1  UNL1        0.0142
      6 C          25.3322   39.7823   25.4501 C.ar    1  UNL1        0.0139
      7 C          24.2333   39.2369   26.0928 C.ar    1  UNL1        0.0414
      8 C          23.3899   38.0944   25.5884 C.3     1  UNL1        0.0504
      9 C          25.1032   41.8376   28.5505 C.3     1  UNL1        0.0504
     10 C          21.0294   39.1085   30.0088 C.ar    1  UNL1        0.0757
     11 C          22.2177   38.3733   30.0396 C.ar    1  UNL1        0.0079
     12 C          23.2137   38.6393   29.1268 C.ar    1  UNL1        0.0177
     13 C          23.0384   39.6381   28.1749 C.ar    1  UNL1        0.0634
     14 C          21.8596   40.3756   28.1447 C.ar    1  UNL1        0.0177
     15 C          20.8568   40.1115   29.0507 C.ar    1  UNL1        0.0079
     16 C          19.9602   38.8269   30.9853 C.2     1  UNL1        0.3412
     17 O          19.2484   37.8526   30.8429 O.2     1  UNL1       -0.2449
     18 O          19.7727   39.6503   32.0353 O.3     1  UNL1       -0.4454
     19 C          20.1087   39.0801   34.3789 C.3     1  UNL1        0.0513
     20 C          19.1252   39.0877   33.2068 C.3     1  UNL1        0.2089
     21 C          26.5159   39.8829   21.8728 C.2     1  UNL1        0.2595
     22 O          27.5539   40.4451   21.5780 O.2     1  UNL1       -0.2691
     23 N          26.0049   38.9398   21.0567 N.am    1  UNL1       -0.2747
     24 H          25.1650   38.4849   21.2953 H       1  UNL1        0.1557
     25 C          26.6612   38.6107   19.8827 C.ar    1  UNL1        0.0866
     26 C          26.4026   39.0618   18.5921 C.ar    1  UNL1        0.0915
     27 C          27.2484   38.5437   17.5426 C.ar    1  UNL1       -0.0119
     28 C          28.2161   37.6821   17.9026 C.ar    1  UNL1        0.0051
     29 S          28.0021   37.5371   19.6646 S.2     1  UNL1       -0.0767
     30 C          29.2328   36.9985   17.0251 C.3     1  UNL1        0.0379
     31 C          27.0583   38.9554   16.1055 C.3     1  UNL1        0.0315
     32 C          25.3230   40.0099   18.3113 C.2     1  UNL1        0.3426
     33 O          25.3572   41.1290   18.7872 O.2     1  UNL1       -0.2448
     34 O          24.2902   39.6426   17.5253 O.3     1  UNL1       -0.4454
     35 C          23.9148   40.5557   16.4606 C.3     1  UNL1        0.2089
     36 C          23.0041   39.8328   15.4661 C.3     1  UNL1        0.0513
     37 C          25.0787   41.4544   23.2057 C.1     1  UNL1        0.1050
     38 N          24.4909   42.4239   23.2752 N.1     1  UNL1       -0.1907
@<TRIPOS>BOND
     1    19    20    1
     2    20    18    1
     3    18    16    1
     4    16    17    2
     5    16    10    1
     6    10    15   ar
     7    10    11   ar
     8    11    12   ar
     9    12    13   ar
    10    13    14   ar
    11    13     3    1
    12    14    15   ar
    13     3     7   ar
    14     3     4   ar
    15     4     5   ar
    16     4     9    1
    17     5     6   ar
    18     6     7   ar
    19     6     1    1
    20     7     8    1
    21     1     2    2
    22     2    37    1
    23     2    21    1
    24    37    38    3
    25    21    22    2
    26    21    23   am
    27    23    25    1
    28    25    29   ar
    29    25    26   ar
    30    26    27   ar
    31    26    32    1
    32    27    28   ar
    33    27    31    1
    34    28    29   ar
    35    28    30    1
    36    32    33    2
    37    32    34    1
    38    34    35    1
    39    35    36    1
    40    23    24    1
@<TRIPOS>MOLECULE
ZINC26823356
 34 36 0 0 0
SMALL
GASTEIGER

@<TRIPOS>ATOM
      1 C          16.7180   38.8590   30.4362 C.ar    1  UNL1        0.1962
      2 N          16.5878   39.3283   31.6622 N.ar    1  UNL1       -0.2187
      3 C          17.6463   39.4858   32.4325 C.ar    1  UNL1        0.1136
      4 C          18.9424   39.1561   31.9791 C.ar    1  UNL1        0.0436
      5 C          20.0026   39.3785   32.9463 C.ar    1  UNL1       -0.0159
      6 C          19.6920   39.8586   34.1597 C.ar    1  UNL1        0.0052
      7 S          17.9224   40.0637   34.0859 S.2     1  UNL1       -0.0726
      8 C          20.6193   40.1633   35.3079 C.3     1  UNL1        0.0379
      9 C          21.4349   39.0731   32.5911 C.3     1  UNL1        0.0314
     10 C          19.0149   38.6610   30.6474 C.ar    1  UNL1        0.1102
     11 N          17.8999   38.5350   29.9442 N.ar    1  UNL1       -0.2190
     12 C          15.4910   38.6893   29.5780 C.3     1  UNL1        0.1720
     13 N          14.3612   38.2677   30.4168 N.4     1  UNL1        0.2817
     14 H          14.7181   37.6240   31.1230 H       1  UNL1        0.2072
     15 C          12.3344   39.0715   31.5319 C.3     1  UNL1        0.0670
     16 C          13.7650   39.4159   31.1128 C.3     1  UNL1        0.1060
     17 C          13.3535   37.5528   29.6222 C.3     1  UNL1        0.1060
     18 C          13.9289   37.2276   28.2423 C.3     1  UNL1        0.0670
     19 S          20.5678   38.2140   29.9451 S.3     1  UNL1       -0.0864
     20 C          20.5076   39.1745   28.4122 C.3     1  UNL1        0.1296
     21 C          21.0210   40.5912   28.6775 C.3     1  UNL1        0.0218
     22 C          21.3733   38.5134   27.3707 C.2     1  UNL1        0.2357
     23 O          20.8918   37.7033   26.6073 O.2     1  UNL1       -0.2739
     24 N          22.6826   38.8222   27.2878 N.am    1  UNL1       -0.2783
     25 C          23.2803   39.8012   28.2060 C.3     1  UNL1        0.0935
     26 C          24.4948   39.1615   28.8863 C.3     1  UNL1        0.0221
     27 C          25.4547   38.6348   27.8172 C.3     1  UNL1        0.0146
     28 C          24.7528   37.5650   26.9768 C.3     1  UNL1        0.1188
     29 C          23.5393   38.1860   26.2779 C.3     1  UNL1        0.1045
     30 C          25.7078   37.0265   25.9428 C.2     1  UNL1        0.3181
     31 O          26.2504   37.7809   25.1706 O.2     1  UNL1       -0.2501
     32 O          25.9554   35.7088   25.8797 O.3     1  UNL1       -0.4485
     33 C          26.9945   35.1909   26.7517 C.3     1  UNL1        0.2086
     34 C          27.0202   33.6637   26.6634 C.3     1  UNL1        0.0513
@<TRIPOS>UNITY_ATOM_ATTR
13 1
charge 1
@<TRIPOS>BOND
     1    15    16    1
     2    16    13    1
     3    13    17    1
     4    13    12    1
     5    17    18    1
     6    12     1    1
     7     1    11   ar
     8     1     2   ar
     9     2     3   ar
    10     3     7   ar
    11     3     4   ar
    12     4     5   ar
    13     4    10   ar
    14     5     6   ar
    15     5     9    1
    16     6     7   ar
    17     6     8    1
    18    10    11   ar
    19    10    19    1
    20    19    20    1
    21    20    21    1
    22    20    22    1
    23    22    23    2
    24    22    24   am
    25    24    29    1
    26    24    25    1
    27    25    26    1
    28    26    27    1
    29    27    28    1
    30    28    29    1
    31    28    30    1
    32    30    31    2
    33    30    32    1
    34    32    33    1
    35    33    34    1
    36    13    14    1
@<TRIPOS>MOLECULE
ZINC12638130
 36 39 0 0 0
SMALL
GASTEIGER

@<TRIPOS>ATOM
      1 C          21.1947   38.5613   27.4972 C.2     1  UNL1        0.3177
      2 O          20.6093   37.6962   26.8899 O.2     1  UNL1       -0.2501
      3 C          20.5481   39.2121   28.6928 C.3     1  UNL1        0.1160
      4 C          20.3118   38.1615   29.7797 C.3     1  UNL1        0.0624
      5 N          18.0969   39.2972   32.6540 N.ar    1  UNL1       -0.2931
      6 C          16.8681   39.1910   32.0341 C.ar    1  UNL1        0.0801
      7 C          15.7029   39.5153   32.7228 C.ar    1  UNL1        0.0188
      8 C          14.4821   39.4064   32.0937 C.ar    1  UNL1        0.0016
      9 C          14.4040   38.9740   30.7761 C.ar    1  UNL1        0.0016
     10 C          15.5327   38.6507   30.0817 C.ar    1  UNL1        0.0206
     11 C          16.7892   38.7532   30.6989 C.ar    1  UNL1        0.0969
     12 N          17.9056   38.4399   30.0139 N.ar    1  UNL1       -0.2434
     13 C          19.0803   38.5238   30.5693 C.ar    1  UNL1        0.1154
     14 C          19.2100   38.9756   31.9590 C.ar    1  UNL1        0.2745
     15 O          20.3075   39.0591   32.4800 O.2     1  UNL1       -0.2657
     16 C          18.1926   39.7521   34.0433 C.3     1  UNL1        0.1091
     17 C          18.5500   41.2395   34.0695 C.3     1  UNL1        0.0246
     18 C          20.4367   40.2657   35.3863 C.3     1  UNL1        0.0001
     19 C          19.5574   41.5023   35.1906 C.3     1  UNL1        0.0020
     20 O          22.4211   38.9429   27.1069 O.3     1  UNL1       -0.4435
     21 C          23.4200   39.1144   28.1465 C.3     1  UNL1        0.2353
     22 C          24.7563   39.4095   27.5153 C.ar    1  UNL1        0.0306
     23 C          25.4943   38.4205   26.9506 C.ar    1  UNL1        0.0817
     24 C          26.7405   38.7243   26.3607 C.ar    1  UNL1        0.3457
     25 O          27.3904   37.8285   25.8524 O.2     1  UNL1       -0.2445
     26 O          27.2294   39.9739   26.3502 O.2     1  UNL1       -0.4211
     27 C          26.5483   41.0019   26.8997 C.ar    1  UNL1        0.1481
     28 C          25.2974   40.7721   27.4997 C.ar    1  UNL1        0.0341
     29 C          24.5911   41.8353   28.0694 C.ar    1  UNL1       -0.0018
     30 C          25.1217   43.0948   28.0398 C.ar    1  UNL1       -0.0263
     31 C          26.3555   43.3252   27.4492 C.ar    1  UNL1       -0.0228
     32 C          27.0685   42.2893   26.8818 C.ar    1  UNL1        0.0330
     33 C          26.9231   44.7211   27.4275 C.3     1  UNL1        0.0308
     34 C          24.3608   44.2415   28.6539 C.3     1  UNL1        0.0220
     35 C          22.8828   43.8655   28.7762 C.3     1  UNL1        0.0047
     36 C          24.9268   44.5434   30.0429 C.3     1  UNL1        0.0047
@<TRIPOS>BOND
     1    18    19    1
     2    19    17    1
     3    17    16    1
     4    16     5    1
     5     5    14   ar
     6     5     6   ar
     7     6    11   ar
     8     6     7   ar
     9     7     8   ar
    10     8     9   ar
    11     9    10   ar
    12    10    11   ar
    13    11    12   ar
    14    12    13   ar
    15    13    14   ar
    16    13     4    1
    17    14    15    2
    18     4     3    1
    19     3     1    1
    20     1     2    2
    21     1    20    1
    22    20    21    1
    23    21    22    1
    24    22    28   ar
    25    22    23   ar
    26    23    24   ar
    27    24    25    2
    28    24    26   ar
    29    26    27   ar
    30    27    32   ar
    31    27    28   ar
    32    28    29   ar
    33    29    30   ar
    34    30    31   ar
    35    30    34    1
    36    31    32   ar
    37    31    33    1
    38    34    35    1
    39    34    36    1
@<TRIPOS>MOLECULE
ZINC27769706
 36 39 0 0 0
SMALL
GASTEIGER

@<TRIPOS>ATOM
      1 C          24.3808   39.6106   27.9756 C.2     1  UNL1        0.3212
      2 N          25.0747   38.5201   28.1708 N.2     1  UNL1       -0.1805
      3 C          26.2559   38.8413   28.7794 C.2     1  UNL1        0.2797
      4 C          27.2512   37.9817   29.1496 C.2     1  UNL1        0.0741
      5 C          26.2331   40.3044   28.9605 C.2     1  UNL1        0.3248
      6 O          27.0950   40.9977   29.4690 O.2     1  UNL1       -0.2625
      7 N          25.0555   40.7138   28.4400 N.am    1  UNL1       -0.1702
      8 H          24.7915   37.6115   27.9194 H       1  UNL1        0.4555
      9 C          27.1571   36.5598   28.8058 C.ar    1  UNL1        0.0063
     10 C          26.9219   35.6080   29.8073 C.ar    1  UNL1        0.0033
     11 C          26.8340   34.2745   29.4783 C.ar    1  UNL1        0.0369
     12 C          26.9781   33.8708   28.1556 C.ar    1  UNL1        0.1387
     13 C          27.2174   34.8099   27.1585 C.ar    1  UNL1        0.0369
     14 C          27.3015   36.1468   27.4743 C.ar    1  UNL1        0.0033
     15 O          26.8906   32.5541   27.8372 O.3     1  UNL1       -0.4714
     16 C          27.1768   32.1933   26.4844 C.3     1  UNL1        0.2525
     17 C          24.5978   42.0377   28.3873 C.ar    1  UNL1        0.0674
     18 C          23.3710   42.3720   28.9464 C.ar    1  UNL1        0.0156
     19 C          22.9218   43.6773   28.8984 C.ar    1  UNL1        0.0044
     20 C          23.6867   44.6520   28.2859 C.ar    1  UNL1        0.0370
     21 C          24.9106   44.3226   27.7212 C.ar    1  UNL1        0.1400
     22 C          25.3667   43.0145   27.7717 C.ar    1  UNL1        0.0523
     23 O          25.6618   45.2818   27.1192 O.3     1  UNL1       -0.4714
     24 C          26.8636   44.8551   26.4743 C.3     1  UNL1        0.2525
     25 S          22.7910   39.6593   27.2174 S.3     1  UNL1       -0.0200
     26 C          22.1343   38.0629   27.7615 C.3     1  UNL1        0.1377
     27 C          21.3224   37.4325   26.6283 C.3     1  UNL1        0.0222
     28 C          20.4302   38.9070   30.8066 C.ar    1  UNL1        0.1805
     29 N          21.4939   39.0379   29.9939 N.ar    1  UNL1       -0.1942
     30 C          21.2465   38.2677   28.9619 C.ar    1  UNL1        0.2465
     31 O          20.0593   37.6945   29.1808 O.2     1  UNL1       -0.3365
     32 N          19.6090   38.0734   30.2415 N.ar    1  UNL1       -0.0606
     33 C          20.2302   39.5962   32.1318 C.3     1  UNL1        0.0692
     34 C          19.1815   38.8379   32.9478 C.3     1  UNL1        0.0081
     35 C          19.8161   40.1489   34.9778 C.3     1  UNL1        0.0000
     36 C          19.6404   38.7414   34.4042 C.3     1  UNL1        0.0005
@<TRIPOS>UNITY_ATOM_ATTR
2 1
charge 1
@<TRIPOS>BOND
     1    35    36    1
     2    36    34    1
     3    34    33    1
     4    33    28    1
     5    28    32   ar
     6    28    29   ar
     7    29    30   ar
     8    30    31   ar
     9    30    26    1
    10    31    32   ar
    11    26    27    1
    12    26    25    1
    13    25     1    1
    14     1     7    1
    15     1     2    2
    16     2     3    1
    17     3     4    2
    18     3     5    1
    19     4     9    1
    20     9    14   ar
    21     9    10   ar
    22    10    11   ar
    23    11    12   ar
    24    12    13   ar
    25    12    15    1
    26    13    14   ar
    27    15    16    1
    28     5     6    2
    29     5     7   am
    30     7    17    1
    31    17    22   ar
    32    17    18   ar
    33    18    19   ar
    34    19    20   ar
    35    20    21   ar
    36    21    22   ar
    37    21    23    1
    38    23    24    1
    39     2     8    1
@<TRIPOS>MOLECULE
ZINC21122248
 36 40 0 0 0
SMALL
GASTEIGER

@<TRIPOS>ATOM
      1 C          20.8436   37.7311   28.5686 C.2     1  UNL1        0.3798
      2 O          20.6020   36.6289   28.1184 O.2     1  UNL1       -0.2413
      3 C          20.0807   38.2390   29.7275 C.ar    1  UNL1        0.2597
      4 N          20.6072   38.7349   30.8597 N.ar    1  UNL1       -0.2006
      5 C          19.6026   39.0801   31.6399 C.ar    1  UNL1        0.1656
      6 N          18.4526   38.7806   30.9732 N.ar    1  UNL1       -0.2106
      7 N          18.7688   38.2779   29.8298 N.ar    1  UNL1       -0.1374
      8 C          17.1513   38.9838   31.4489 C.ar    1  UNL1        0.0845
      9 C          16.9331   39.2183   32.8002 C.ar    1  UNL1        0.0192
     10 C          15.6491   39.4230   33.2655 C.ar    1  UNL1        0.0015
     11 C          14.5801   39.3839   32.3890 C.ar    1  UNL1        0.0001
     12 C          14.7935   39.1459   31.0436 C.ar    1  UNL1        0.0015
     13 C          16.0758   38.9456   30.5713 C.ar    1  UNL1        0.0192
     14 C          19.7045   39.6761   32.9904 C.ar    1  UNL1        0.0359
     15 C          19.5339   41.0497   33.1645 C.ar    1  UNL1        0.0030
     16 C          19.6249   41.5987   34.4271 C.ar    1  UNL1        0.0001
     17 C          19.8962   40.7915   35.5175 C.ar    1  UNL1        0.0000
     18 C          20.0716   39.4295   35.3507 C.ar    1  UNL1        0.0001
     19 C          19.9774   38.8676   34.0940 C.ar    1  UNL1        0.0030
     20 O          21.8069   38.4902   28.0112 O.3     1  UNL1       -0.4347
     21 C          23.0974   37.8616   27.7922 C.3     1  UNL1        0.2771
     22 C          24.0788   38.3568   28.8230 C.2     1  UNL1        0.2181
     23 O          24.3648   39.5350   28.8717 O.2     1  UNL1       -0.2873
     24 C          25.0832   35.6303   33.0085 C.3     1  UNL1        0.0500
     25 C          25.1218   36.2178   31.6212 C.ar    1  UNL1        0.0373
     26 C          24.2777   37.1487   31.1462 C.ar    1  UNL1        0.0168
     27 C          24.6918   37.4150   29.7622 C.ar    1  UNL1        0.0512
     28 C          25.7754   36.5898   29.5264 C.ar    1  UNL1        0.0401
     29 N          26.0200   35.8886   30.6476 N.ar    1  UNL1       -0.3314
     30 C          26.5507   36.4952   28.2376 C.3     1  UNL1        0.0501
     31 C          27.0953   34.9054   30.8005 C.3     1  UNL1        0.1348
     32 C          26.5546   33.5069   30.4963 C.3     1  UNL1        0.1378
     33 C          27.1359   32.4905   31.5025 C.3     1  UNL1        0.0341
     34 C          27.3977   31.2506   30.6046 C.3     1  UNL1        0.0346
     35 C          27.7951   31.9321   29.2710 C.3     1  UNL1        0.1422
     36 O          26.9654   33.1015   29.1854 O.3     1  UNL1       -0.3543
@<TRIPOS>BOND
     1    24    25    1
     2    25    29   ar
     3    25    26   ar
     4    26    27   ar
     5    27    28   ar
     6    27    22    1
     7    28    29   ar
     8    28    30    1
     9    29    31    1
    10    31    32    1
    11    32    36    1
    12    32    33    1
    13    33    34    1
    14    34    35    1
    15    35    36    1
    16    22    23    2
    17    22    21    1
    18    21    20    1
    19    20     1    1
    20     1     2    2
    21     1     3    1
    22     3     7   ar
    23     3     4   ar
    24     4     5   ar
    25     5     6   ar
    26     5    14    1
    27     6     7   ar
    28     6     8    1
    29     8    13   ar
    30     8     9   ar
    31     9    10   ar
    32    10    11   ar
    33    11    12   ar
    34    12    13   ar
    35    14    19   ar
    36    14    15   ar
    37    15    16   ar
    38    16    17   ar
    39    17    18   ar
    40    18    19   ar
@<TRIPOS>MOLECULE
ZINC02174170
 42 46 0 0 0
SMALL
GASTEIGER

@<TRIPOS>ATOM
      1 C          12.2780   37.7623   29.6265 C.2     1  UNL1        0.0115
      2 C          13.6184   37.9522   29.7357 C.ar    1  UNL1        0.0884
      3 C          14.4413   38.1291   30.9398 C.ar    1  UNL1        0.2688
      4 O          13.9395   38.1200   32.0487 O.2     1  UNL1       -0.2664
      5 N          15.7607   38.3015   30.7812 N.ar    1  UNL1       -0.2689
      6 C          16.2765   38.3041   29.5053 C.ar    1  UNL1        0.1782
      7 N          17.5426   38.4629   29.2223 N.2     1  UNL1       -0.2223
      8 C          18.5084   38.6440   30.1274 C.2     1  UNL1        0.0877
      9 C          18.1978   38.6734   31.4818 C.2     1  UNL1        0.0958
     10 C          16.7509   38.4899   31.8783 C.3     1  UNL1        0.1431
     11 S          14.8582   38.0536   28.4545 S.2     1  UNL1       -0.0455
     12 C          16.3314   39.7006   32.6715 C.ar    1  UNL1        0.0030
     13 C          16.0441   39.5784   34.0182 C.ar    1  UNL1        0.0002
     14 C          15.6648   40.6890   34.7480 C.ar    1  UNL1        0.0294
     15 C          15.5621   41.9225   34.1272 C.ar    1  UNL1        0.1401
     16 C          15.8447   42.0425   32.7772 C.ar    1  UNL1        0.0294
     17 C          16.2288   40.9315   32.0507 C.ar    1  UNL1        0.0002
     18 F          15.1861   43.0079   34.8384 F       1  UNL1       -0.2042
     19 C          10.4325   38.9473   26.5846 C.ar    1  UNL1        0.1722
     20 C          11.0257   38.9408   27.8315 C.ar    1  UNL1        0.0401
     21 C          11.6402   37.7745   28.3043 C.ar    1  UNL1        0.0039
     22 C          11.6392   36.6182   27.5141 C.ar    1  UNL1        0.0033
     23 C          11.0400   36.6329   26.2740 C.ar    1  UNL1        0.0401
     24 C          10.4361   37.7918   25.8041 C.ar    1  UNL1        0.1737
     25 O           9.8398   40.0796   26.1199 O.3     1  UNL1       -0.4724
     26 C           9.6552   41.8336   24.4677 C.3     1  UNL1        0.0512
     27 C          10.5949   40.8799   25.2081 C.3     1  UNL1        0.2057
     28 O           9.8464   37.7996   24.5803 O.3     1  UNL1       -0.4581
     29 C          10.6814   37.5155   23.4560 C.3     1  UNL1        0.2821
     30 C          10.6501   38.6528   22.5219 C.1     1  UNL1       -0.0307
     31 C          10.6249   39.5598   21.7769 C.1     1  UNL1       -0.0105
     32 C          19.9118   38.8132   29.6871 C.ar    1  UNL1        0.0177
     33 C          20.3692   40.0637   29.2703 C.ar    1  UNL1        0.0015
     34 C          21.6796   40.2159   28.8661 C.ar    1  UNL1        0.0000
     35 C          22.5362   39.1295   28.8626 C.ar    1  UNL1        0.0000
     36 C          22.0872   37.8858   29.2697 C.ar    1  UNL1        0.0000
     37 C          20.7807   37.7217   29.6817 C.ar    1  UNL1        0.0015
     38 C          19.1938   38.8609   32.4478 C.2     1  UNL1        0.3408
     39 O          19.6224   37.9076   33.0742 O.2     1  UNL1       -0.2451
     40 O          19.6836   40.0984   32.6818 O.3     1  UNL1       -0.4456
     41 C          20.0534   40.4061   34.0275 C.3     1  UNL1        0.2089
     42 C          19.2743   41.6343   34.5024 C.3     1  UNL1        0.0513
@<TRIPOS>BOND
     1    26    27    1
     2    27    25    1
     3    25    19    1
     4    19    24   ar
     5    19    20   ar
     6    20    21   ar
     7    21    22   ar
     8    21     1    1
     9    22    23   ar
    10    23    24   ar
    11    24    28    1
    12    28    29    1
    13    29    30    1
    14    30    31    3
    15     1     2    2
    16     2    11   ar
    17     2     3   ar
    18     3     4    2
    19     3     5   ar
    20     5    10    1
    21     5     6   ar
    22     6     7    2
    23     6    11   ar
    24     7     8    1
    25     8     9    2
    26     8    32    1
    27     9    10    1
    28     9    38    1
    29    10    12    1
    30    12    17   ar
    31    12    13   ar
    32    13    14   ar
    33    14    15   ar
    34    15    16   ar
    35    15    18    1
    36    16    17   ar
    37    38    39    2
    38    38    40    1
    39    40    41    1
    40    41    42    1
    41    32    37   ar
    42    32    33   ar
    43    33    34   ar
    44    34    35   ar
    45    35    36   ar
    46    36    37   ar
@<TRIPOS>MOLECULE
ZINC14862954
 33 35 0 0 0
SMALL
GASTEIGER

@<TRIPOS>ATOM
      1 C          26.4031   37.7436   27.5492 C.2     1  UNL1        0.2546
      2 O          27.1454   38.4628   26.9058 O.2     1  UNL1       -0.2695
      3 N          25.6655   38.2610   28.5516 N.am    1  UNL1       -0.2294
      4 C          25.7523   39.6168   28.8510 C.ar    1  UNL1        0.1923
      5 N          26.4888   40.2428   29.7546 N.ar    1  UNL1       -0.1245
      6 N          26.4488   41.4952   29.8984 N.ar    1  UNL1       -0.1330
      7 C          25.6659   42.2614   29.1528 C.ar    1  UNL1        0.1654
      8 S          24.9050   41.0136   28.1182 S.2     1  UNL1       -0.0238
      9 S          25.4433   44.0092   29.1692 S.3     1  UNL1       -0.0168
     10 C          23.7727   44.2451   28.5031 C.3     1  UNL1        0.3725
     11 F          22.8314   43.7889   29.4322 F       1  UNL1       -0.1852
     12 F          23.5586   45.6045   28.2514 F       1  UNL1       -0.1852
     13 C          27.2924   35.4770   27.6260 C.2     1  UNL1        0.0049
     14 C          26.3120   36.3189   27.2346 C.2     1  UNL1        0.0583
     15 C          27.0897   31.7528   28.0397 C.ar    1  UNL1        0.1754
     16 C          27.1759   33.0986   28.3409 C.ar    1  UNL1        0.0403
     17 C          27.2007   34.0445   27.3097 C.ar    1  UNL1        0.0064
     18 C          27.1323   33.6234   25.9769 C.ar    1  UNL1        0.0403
     19 C          27.0520   32.2755   25.6831 C.ar    1  UNL1        0.1754
     20 C          27.0276   31.3371   26.7120 C.ar    1  UNL1        0.2061
     21 C          28.2710   30.6528   29.7863 C.3     1  UNL1        0.2526
     22 O          27.0651   30.8329   29.0412 O.3     1  UNL1       -0.4683
     23 O          26.9425   30.0125   26.4196 O.3     1  UNL1       -0.4654
     24 C          28.1708   29.2878   26.3296 C.3     1  UNL1        0.2528
     25 O          26.9907   31.8651   24.3880 O.3     1  UNL1       -0.4683
     26 C          26.1877   32.6432   23.4982 C.3     1  UNL1        0.2526
     27 C          24.7723   37.3955   29.3259 C.3     1  UNL1        0.1270
     28 C          23.3420   37.8017   29.0804 C.ar    1  UNL1       -0.0019
     29 C          22.8246   37.7699   27.7990 C.ar    1  UNL1       -0.0026
     30 C          21.5126   38.1425   27.5739 C.ar    1  UNL1       -0.0003
     31 C          20.7180   38.5469   28.6303 C.ar    1  UNL1       -0.0000
     32 C          21.2352   38.5782   29.9118 C.ar    1  UNL1       -0.0003
     33 C          22.5473   38.2057   30.1369 C.ar    1  UNL1       -0.0026
@<TRIPOS>BOND
     1    21    22    1
     2    22    15    1
     3    15    20   ar
     4    15    16   ar
     5    16    17   ar
     6    17    18   ar
     7    17    13    1
     8    18    19   ar
     9    19    20   ar
    10    19    25    1
    11    20    23    1
    12    23    24    1
    13    25    26    1
    14    13    14    2
    15    14     1    1
    16     1     2    2
    17     1     3   am
    18     3    27    1
    19     3     4    1
    20    27    28    1
    21    28    33   ar
    22    28    29   ar
    23    29    30   ar
    24    30    31   ar
    25    31    32   ar
    26    32    33   ar
    27     4     8   ar
    28     4     5   ar
    29     5     6   ar
    30     6     7   ar
    31     7     8   ar
    32     7     9    1
    33     9    10    1
    34    10    11    1
    35    10    12    1
@<TRIPOS>MOLECULE
ZINC08441028
 36 39 0 0 0
SMALL
GASTEIGER

@<TRIPOS>ATOM
      1 N          23.3141   38.7559   28.2160 N.am    1  UNL1       -0.2457
      2 C          22.0271   38.3842   28.0666 C.2     1  UNL1        0.2775
      3 O          21.7582   37.3392   27.5131 O.2     1  UNL1       -0.2704
      4 C          25.2709   37.2198   28.4464 C.ar    1  UNL1        0.0917
      5 C          26.2388   36.4450   27.6881 C.ar    1  UNL1       -0.0122
      6 C          26.1126   36.5217   26.3458 C.ar    1  UNL1        0.0047
      7 S          24.7342   37.6010   26.0814 S.2     1  UNL1       -0.0765
      8 C          24.3297   37.9477   27.7301 C.ar    1  UNL1        0.0900
      9 C          26.9610   35.8383   25.3181 C.3     1  UNL1        0.0327
     10 C          28.2365   35.3289   26.0051 C.3     1  UNL1        0.0055
     11 C          27.8479   34.5953   27.2919 C.3     1  UNL1        0.0050
     12 C          27.3310   35.5953   28.3263 C.3     1  UNL1        0.0268
     13 C          25.2876   37.2328   29.9106 C.2     1  UNL1        0.3426
     14 O          26.0799   37.9401   30.5035 O.2     1  UNL1       -0.2448
     15 O          24.4244   36.4605   30.6018 O.3     1  UNL1       -0.4454
     16 C          25.6029   34.5216   31.4860 C.3     1  UNL1        0.0513
     17 C          24.9191   35.8484   31.8220 C.3     1  UNL1        0.2089
     18 C          23.6392   40.0142   28.8921 C.3     1  UNL1        0.1283
     19 C          24.5886   40.8132   28.0370 C.ar    1  UNL1        0.0317
     20 C          24.1889   41.2602   26.7922 C.ar    1  UNL1        0.0004
     21 C          25.0577   41.9972   26.0093 C.ar    1  UNL1       -0.0001
     22 C          26.3322   42.2803   26.4652 C.ar    1  UNL1        0.0031
     23 C          26.7385   41.8314   27.7067 C.ar    1  UNL1        0.0363
     24 C          25.8665   41.0959   28.4966 C.ar    1  UNL1        0.1313
     25 O          26.2640   40.6528   29.7183 O.3     1  UNL1       -0.5058
     26 H          25.6745   40.1561   30.2511 H       1  UNL1        0.2922
     27 C          20.9225   39.2672   28.5873 C.3     1  UNL1        0.3228
     28 O          20.2266   38.5908   29.6363 O.2     1  UNL1       -0.3675
     29 N          20.4061   39.1723   30.9149 N.2     1  UNL1       -0.0864
     30 C          19.4089   39.2419   31.7415 C.2     1  UNL1        0.1033
     31 C          18.0593   38.7042   31.3411 C.3     1  UNL1        0.0561
     32 C          19.5949   39.8444   33.0662 C.ar    1  UNL1        0.0462
     33 C          20.6595   39.7164   33.9412 C.ar    1  UNL1        0.0083
     34 C          20.6047   40.3867   35.1398 C.ar    1  UNL1        0.0075
     35 C          19.5158   41.1484   35.4271 C.ar    1  UNL1        0.0355
     36 S          18.5105   40.9401   33.9669 S.2     1  UNL1       -0.0851
@<TRIPOS>BOND
     1    16    17    1
     2    17    15    1
     3    15    13    1
     4    13    14    2
     5    13     4    1
     6     4     8   ar
     7     4     5   ar
     8     5    12    1
     9     5     6   ar
    10     6     7   ar
    11     6     9    1
    12     7     8   ar
    13     8     1    1
    14     1    18    1
    15     1     2   am
    16    18    19    1
    17    19    24   ar
    18    19    20   ar
    19    20    21   ar
    20    21    22   ar
    21    22    23   ar
    22    23    24   ar
    23    24    25    1
    24     2     3    2
    25     2    27    1
    26    27    28    1
    27    28    29    1
    28    29    30    2
    29    30    31    1
    30    30    32    1
    31    32    36   ar
    32    32    33   ar
    33    33    34   ar
    34    34    35   ar
    35    35    36   ar
    36     9    10    1
    37    10    11    1
    38    11    12    1
    39    25    26    1
@<TRIPOS>MOLECULE
ZINC20603872
 34 36 0 0 0
SMALL
GASTEIGER

@<TRIPOS>ATOM
      1 N          22.4151   38.4777   28.7189 N.3     1  UNL1       -0.1491
      2 S          20.8542   37.9361   28.6069 S.O2    1  UNL1        0.0636
      3 O          20.9073   36.5198   28.7095 O.2     1  UNL1       -0.1528
      4 O          20.2738   38.5978   27.4913 O.2     1  UNL1       -0.1528
      5 C          19.9989   38.5128   30.0354 C.ar    1  UNL1        0.1222
      6 C          18.6268   38.3699   30.1240 C.ar    1  UNL1        0.0196
      7 C          17.9558   38.8224   31.2448 C.ar    1  UNL1       -0.0029
      8 C          18.6570   39.4168   32.2772 C.ar    1  UNL1       -0.0221
      9 C          20.0285   39.5639   32.1863 C.ar    1  UNL1       -0.0029
     10 C          20.7000   39.1076   31.0676 C.ar    1  UNL1        0.0196
     11 C          17.9255   39.9099   33.4990 C.3     1  UNL1        0.0263
     12 C          16.4371   40.0579   33.1772 C.3     1  UNL1        0.0044
     13 C          16.0404   41.5329   33.2654 C.3     1  UNL1        0.0003
     14 C          15.6151   39.2477   34.1816 C.3     1  UNL1        0.0003
     15 C          22.9883   39.2884   27.6418 C.3     1  UNL1        0.1409
     16 N          24.1245   41.5044   28.1790 N.ar    1  UNL1       -0.2535
     17 C          23.0222   40.7344   28.0649 C.ar    1  UNL1        0.0750
     18 C          21.9532   41.4917   28.4042 C.ar    1  UNL1        0.0382
     19 C          22.4178   42.7696   28.7319 C.ar    1  UNL1        0.1214
     20 N          23.7189   42.7793   28.5944 N.ar    1  UNL1       -0.1680
     21 C          26.1331   40.5570   29.2035 C.3     1  UNL1        0.0284
     22 C          25.5020   41.0824   27.9125 C.3     1  UNL1        0.1272
     23 C          23.2228   38.1461   29.8953 C.3     1  UNL1        0.1009
     24 C          24.4095   37.2785   29.4711 C.3     1  UNL1        0.0456
     25 C          25.2012   36.8795   30.6897 C.ar    1  UNL1       -0.0175
     26 C          24.5510   36.3683   31.7976 C.ar    1  UNL1       -0.0009
     27 C          25.2733   35.9954   32.9158 C.ar    1  UNL1        0.0397
     28 C          26.6508   36.1443   32.9321 C.ar    1  UNL1        0.1724
     29 C          27.3046   36.6641   31.8192 C.ar    1  UNL1        0.1721
     30 C          26.5752   37.0305   30.6995 C.ar    1  UNL1        0.0358
     31 O          28.6565   36.8116   31.8302 O.3     1  UNL1       -0.4684
     32 C          29.4196   35.8539   31.0937 C.3     1  UNL1        0.2526
     33 O          27.3623   35.7827   34.0333 O.3     1  UNL1       -0.4684
     34 C          26.9447   34.5986   34.7156 C.3     1  UNL1        0.2526
@<TRIPOS>BOND
     1    21    22    1
     2    22    16    1
     3    16    20   ar
     4    16    17   ar
     5    17    18   ar
     6    17    15    1
     7    18    19   ar
     8    19    20   ar
     9    15     1    1
    10     1    23    1
    11     1     2    1
    12    23    24    1
    13    24    25    1
    14    25    30   ar
    15    25    26   ar
    16    26    27   ar
    17    27    28   ar
    18    28    29   ar
    19    28    33    1
    20    29    30   ar
    21    29    31    1
    22    31    32    1
    23    33    34    1
    24     2     3    2
    25     2     4    2
    26     2     5    1
    27     5    10   ar
    28     5     6   ar
    29     6     7   ar
    30     7     8   ar
    31     8     9   ar
    32     8    11    1
    33     9    10   ar
    34    11    12    1
    35    12    13    1
    36    12    14    1
@<TRIPOS>MOLECULE
ZINC24198568
 34 37 0 0 0
SMALL
GASTEIGER

@<TRIPOS>ATOM
      1 C          23.4390   38.4352   28.9917 C.ar    1  UNL1        0.1738
      2 N          23.3182   39.6308   28.4697 N.ar    1  UNL1       -0.2224
      3 C          24.3636   40.4895   28.4156 C.ar    1  UNL1        0.0882
      4 C          24.2320   41.7647   27.8587 C.ar    1  UNL1        0.0258
      5 C          25.3325   42.6117   27.8254 C.ar    1  UNL1        0.0771
      6 C          26.5655   42.1957   28.3444 C.ar    1  UNL1        0.0067
      7 C          26.7058   40.9522   28.8903 C.ar    1  UNL1        0.0065
      8 C          25.6143   40.0856   28.9346 C.ar    1  UNL1        0.0739
      9 C          25.7197   38.7392   29.5194 C.ar    1  UNL1        0.2637
     10 O          26.7683   38.3349   29.9865 O.2     1  UNL1       -0.2669
     11 N          24.6098   37.9655   29.5144 N.ar    1  UNL1       -0.2756
     12 C          25.2013   43.9634   27.2381 C.2     1  UNL1        0.3414
     13 O          26.1046   44.4259   26.5710 O.2     1  UNL1       -0.2449
     14 O          24.0801   44.6809   27.4433 O.3     1  UNL1       -0.4413
     15 C          24.2243   45.9416   28.1491 C.3     1  UNL1        0.2560
     16 S          22.0251   37.3841   29.0197 S.3     1  UNL1       -0.0708
     17 C          20.7239   38.5987   28.6917 C.3     1  UNL1        0.1112
     18 C          17.7980   38.8678   30.9050 C.ar    1  UNL1        0.1104
     19 N          18.5673   38.7244   29.8351 N.ar    1  UNL1       -0.2418
     20 C          19.8755   38.7716   29.9252 C.ar    1  UNL1        0.0774
     21 C          20.4643   38.9822   31.1325 C.ar    1  UNL1        0.0524
     22 S          19.0234   39.1087   32.1845 S.2     1  UNL1       -0.0663
     23 C          12.0589   38.7650   31.3173 C.3     1  UNL1        0.0310
     24 C          13.5618   38.7920   31.2093 C.ar    1  UNL1       -0.0218
     25 C          14.1775   38.3426   30.0547 C.ar    1  UNL1       -0.0042
     26 C          15.5530   38.3646   29.9495 C.ar    1  UNL1        0.0017
     27 C          16.3233   38.8412   31.0110 C.ar    1  UNL1        0.0238
     28 C          15.6963   39.2872   32.1752 C.ar    1  UNL1        0.0017
     29 C          14.3198   39.2656   32.2653 C.ar    1  UNL1       -0.0042
     30 C          24.6630   36.6150   30.0797 C.3     1  UNL1        0.1136
     31 C          24.6266   36.6996   31.6069 C.3     1  UNL1        0.0567
     32 C          25.6262   35.7028   32.1969 C.3     1  UNL1        0.1443
     33 O          25.9375   36.0789   33.5399 O.3     1  UNL1       -0.3510
     34 C          26.4911   35.0216   34.3261 C.3     1  UNL1        0.1741
@<TRIPOS>BOND
     1    23    24    1
     2    24    29   ar
     3    24    25   ar
     4    25    26   ar
     5    26    27   ar
     6    27    28   ar
     7    27    18    1
     8    28    29   ar
     9    18    22   ar
    10    18    19   ar
    11    19    20   ar
    12    20    21   ar
    13    20    17    1
    14    21    22   ar
    15    17    16    1
    16    16     1    1
    17     1    11   ar
    18     1     2   ar
    19     2     3   ar
    20     3     8   ar
    21     3     4   ar
    22     4     5   ar
    23     5     6   ar
    24     5    12    1
    25     6     7   ar
    26     7     8   ar
    27     8     9   ar
    28     9    10    2
    29     9    11   ar
    30    11    30    1
    31    30    31    1
    32    31    32    1
    33    32    33    1
    34    33    34    1
    35    12    13    2
    36    12    14    1
    37    14    15    1
@<TRIPOS>MOLECULE
ZINC08950478
 36 39 0 0 0
SMALL
GASTEIGER

@<TRIPOS>ATOM
      1 C          27.2192   31.3078   28.2594 C.ar    1  UNL1        0.0131
      2 C          27.4214   31.2358   26.9230 C.ar    1  UNL1        0.0371
      3 S          27.3726   32.9405   26.4046 S.2     1  UNL1       -0.0673
      4 C          27.0844   33.7046   27.9798 C.ar    1  UNL1        0.1174
      5 C          27.0326   32.6196   28.8720 C.ar    1  UNL1        0.0805
      6 C          26.8066   32.9508   30.2435 C.ar    1  UNL1        0.2645
      7 O          26.7463   32.0737   31.0883 O.2     1  UNL1       -0.2668
      8 N          26.6611   34.2425   30.5911 N.ar    1  UNL1       -0.2714
      9 C          26.7245   35.2371   29.6587 C.ar    1  UNL1        0.1746
     10 N          26.9322   34.9592   28.3876 N.ar    1  UNL1       -0.2157
     11 C          27.0957   26.5286   31.4685 C.3     1  UNL1        0.0310
     12 C          27.1281   27.7792   30.6282 C.ar    1  UNL1       -0.0218
     13 C          28.3210   28.4551   30.4445 C.ar    1  UNL1       -0.0043
     14 C          28.3568   29.6010   29.6766 C.ar    1  UNL1       -0.0003
     15 C          27.1874   30.0775   29.0855 C.ar    1  UNL1        0.0007
     16 C          25.9869   29.3953   29.2790 C.ar    1  UNL1       -0.0003
     17 C          25.9646   28.2472   30.0443 C.ar    1  UNL1       -0.0043
     18 S          26.5273   36.9143   30.1614 S.3     1  UNL1       -0.0674
     19 C          25.2182   37.4316   29.0236 C.3     1  UNL1        0.1501
     20 C          23.9174   37.5503   29.7751 C.2     1  UNL1        0.2376
     21 O          23.6478   36.7548   30.6499 O.2     1  UNL1       -0.2738
     22 N          23.0536   38.5404   29.4750 N.am    1  UNL1       -0.2830
     23 H          23.3003   39.2246   28.8114 H       1  UNL1        0.1549
     24 C          21.8123   38.5957   30.1035 C.ar    1  UNL1        0.0566
     25 C          21.7041   39.1032   31.3914 C.ar    1  UNL1        0.0149
     26 C          20.4720   39.1620   32.0106 C.ar    1  UNL1        0.0013
     27 C          19.3369   38.7069   31.3588 C.ar    1  UNL1        0.0003
     28 C          19.4252   38.1947   30.0829 C.ar    1  UNL1        0.0077
     29 C          20.6650   38.1336   29.4407 C.ar    1  UNL1        0.0891
     30 C          20.7669   37.5865   28.0760 C.2     1  UNL1        0.3425
     31 O          20.4088   36.4476   27.8496 O.2     1  UNL1       -0.2448
     32 O          21.2574   38.3493   27.0793 O.3     1  UNL1       -0.4413
     33 C          22.0856   37.6860   26.0880 C.3     1  UNL1        0.2560
     34 C          26.4292   34.5873   31.9959 C.3     1  UNL1        0.1374
     35 C          27.7431   34.5988   32.7338 C.2     1  UNL1       -0.0016
     36 C          27.8292   34.0641   33.9266 C.2     1  UNL1       -0.0029
@<TRIPOS>BOND
     1    11    12    1
     2    12    17   ar
     3    12    13   ar
     4    13    14   ar
     5    14    15   ar
     6    15    16   ar
     7    15     1    1
     8    16    17   ar
     9     1     5   ar
    10     1     2   ar
    11     2     3   ar
    12     3     4   ar
    13     4    10   ar
    14     4     5   ar
    15     5     6   ar
    16     6     7    2
    17     6     8   ar
    18     8     9   ar
    19     8    34    1
    20     9    10   ar
    21     9    18    1
    22    18    19    1
    23    19    20    1
    24    20    21    2
    25    20    22   am
    26    22    24    1
    27    24    29   ar
    28    24    25   ar
    29    25    26   ar
    30    26    27   ar
    31    27    28   ar
    32    28    29   ar
    33    29    30    1
    34    30    31    2
    35    30    32    1
    36    32    33    1
    37    34    35    1
    38    35    36    2
    39    22    23    1
@<TRIPOS>MOLECULE
ZINC12566626
 34 37 0 0 0
SMALL
GASTEIGER

@<TRIPOS>ATOM
      1 N          17.5609   39.4788   32.0613 N.ar    1  UNL1       -0.2757
      2 C          16.2195   39.5052   32.1662 C.ar    1  UNL1        0.2639
      3 O          15.6850   40.0314   33.1272 O.2     1  UNL1       -0.2669
      4 C          15.4293   38.9066   31.1343 C.ar    1  UNL1        0.0762
      5 C          13.9704   38.8201   31.0440 C.ar    1  UNL1       -0.0136
      6 C          13.4602   38.1993   29.9614 C.ar    1  UNL1        0.0049
      7 S          14.8698   37.6998   29.0098 S.2     1  UNL1       -0.0725
      8 C          16.1450   38.3280   30.0728 C.ar    1  UNL1        0.1168
      9 N          17.4721   38.3347   30.0291 N.ar    1  UNL1       -0.2158
     10 C          18.1760   38.8985   30.9900 C.ar    1  UNL1        0.1743
     11 C          12.0134   37.9814   29.6378 C.3     1  UNL1        0.0327
     12 C          11.1886   38.2431   30.9062 C.3     1  UNL1        0.0055
     13 C          11.6499   39.5644   31.5281 C.3     1  UNL1        0.0050
     14 C          13.0519   39.4002   32.1159 C.3     1  UNL1        0.0268
     15 C          18.3761   40.0898   33.1140 C.3     1  UNL1        0.1110
     16 C          20.0134   39.4569   34.8919 C.3     1  UNL1        0.0021
     17 C          18.7420   39.0303   34.1553 C.3     1  UNL1        0.0247
     18 S          19.9354   38.8956   30.8947 S.3     1  UNL1       -0.0688
     19 C          20.1528   38.8294   29.0989 C.3     1  UNL1        0.1354
     20 C          21.0757   37.6914   28.7462 C.2     1  UNL1        0.1994
     21 O          20.6430   36.7163   28.1664 O.2     1  UNL1       -0.2889
     22 C          22.4469   37.7594   29.0909 C.ar    1  UNL1        0.0886
     23 C          23.3798   38.6091   28.5367 C.ar    1  UNL1        0.0039
     24 C          24.6091   38.3380   29.1748 C.ar    1  UNL1        0.0846
     25 C          24.3801   37.3253   30.0901 C.ar    1  UNL1        0.0400
     26 N          23.0847   36.9823   30.0363 N.ar    1  UNL1       -0.3542
     27 C          25.4149   36.7095   30.9963 C.3     1  UNL1        0.0500
     28 C          23.1339   39.6331   27.4587 C.3     1  UNL1        0.0329
     29 H          22.6564   36.2859   30.5847 H       1  UNL1        0.1657
     30 C          25.8961   39.0042   28.9121 C.2     1  UNL1        0.3420
     31 O          26.6134   38.6079   28.0146 O.2     1  UNL1       -0.2449
     32 O          26.2782   40.0532   29.6667 O.3     1  UNL1       -0.4454
     33 C          26.6811   41.2585   28.9645 C.3     1  UNL1        0.2089
     34 C          25.4976   42.2253   28.8903 C.3     1  UNL1        0.0513
@<TRIPOS>BOND
     1    16    17    1
     2    17    15    1
     3    15     1    1
     4     1    10   ar
     5     1     2   ar
     6     2     3    2
     7     2     4   ar
     8     4     8   ar
     9     4     5   ar
    10     5    14    1
    11     5     6   ar
    12     6     7   ar
    13     6    11    1
    14     7     8   ar
    15     8     9   ar
    16     9    10   ar
    17    10    18    1
    18    18    19    1
    19    19    20    1
    20    20    21    2
    21    20    22    1
    22    22    26   ar
    23    22    23   ar
    24    23    24   ar
    25    23    28    1
    26    24    25   ar
    27    24    30    1
    28    25    26   ar
    29    25    27    1
    30    30    31    2
    31    30    32    1
    32    32    33    1
    33    33    34    1
    34    11    12    1
    35    12    13    1
    36    13    14    1
    37    26    29    1
@<TRIPOS>MOLECULE
ZINC02094715
 41 46 0 0 0
SMALL
GASTEIGER

@<TRIPOS>ATOM
      1 C          26.4159   39.6031   27.8117 C.3     1  UNL1        0.1047
      2 C          26.6717   41.0994   27.4894 C.3     1  UNL1        0.1810
      3 N          25.3689   41.7514   27.5723 N.pl3   1  UNL1       -0.2966
      4 C          25.2905   43.0906   27.8579 C.ar    1  UNL1        0.0484
      5 C          26.3725   43.9488   27.8218 C.ar    1  UNL1        0.0145
      6 C          26.2025   45.2862   28.1309 C.ar    1  UNL1        0.0013
      7 C          24.9546   45.7751   28.4777 C.ar    1  UNL1        0.0001
      8 C          23.8604   44.9325   28.5175 C.ar    1  UNL1        0.0012
      9 C          24.0154   43.5883   28.2082 C.ar    1  UNL1        0.0131
     10 C          22.8712   42.6469   28.2324 C.2     1  UNL1       -0.0017
     11 C          23.1390   41.3415   28.4107 C.2     1  UNL1       -0.0059
     12 C          24.5838   40.9709   28.5669 C.3     1  UNL1        0.1078
     13 C          24.9196   39.5332   28.1817 C.3     1  UNL1        0.1183
     14 C          24.0871   39.0201   27.0602 C.ar    1  UNL1        0.0012
     15 C          23.8883   39.4732   25.7735 C.ar    1  UNL1       -0.0025
     16 C          23.0264   38.7363   24.9690 C.ar    1  UNL1       -0.0002
     17 C          22.3906   37.6067   25.4425 C.ar    1  UNL1        0.0013
     18 C          22.5851   37.1429   26.7341 C.ar    1  UNL1        0.0144
     19 C          23.4512   37.8702   27.5513 C.ar    1  UNL1        0.0468
     20 N          23.8229   37.6380   28.8649 N.am    1  UNL1       -0.2838
     21 C          24.6878   38.5733   29.3185 C.2     1  UNL1        0.2314
     22 O          25.1810   38.6281   30.4252 O.2     1  UNL1       -0.2744
     23 H          23.4963   36.8819   29.4042 H       1  UNL1        0.1549
     24 C          26.6988   38.7473   26.6039 C.2     1  UNL1        0.1756
     25 O          26.8400   39.2627   25.5154 O.2     1  UNL1       -0.2913
     26 C          27.0008   34.5361   27.0116 C.ar    1  UNL1       -0.0222
     27 C          26.5244   35.0810   25.8320 C.ar    1  UNL1       -0.0042
     28 C          26.4234   36.4490   25.6916 C.ar    1  UNL1        0.0025
     29 C          26.8034   37.2862   26.7454 C.ar    1  UNL1        0.0348
     30 C          27.2888   36.7280   27.9322 C.ar    1  UNL1        0.0025
     31 C          27.3789   35.3579   28.0590 C.ar    1  UNL1       -0.0042
     32 C          27.1080   33.0398   27.1565 C.3     1  UNL1        0.0264
     33 C          27.9238   32.7057   28.4069 C.3     1  UNL1        0.0047
     34 C          27.0495   31.9300   29.3942 C.3     1  UNL1        0.0003
     35 C          26.3893   33.6376   31.0944 C.3     1  UNL1        0.0000
     36 C          27.3034   32.4434   30.8129 C.3     1  UNL1        0.0000
     37 C          27.6166   41.6951   28.5009 C.2     1  UNL1        0.3356
     38 O          27.3416   41.6627   29.6771 O.2     1  UNL1       -0.2482
     39 O          28.7639   42.2617   28.0953 O.3     1  UNL1       -0.4474
     40 C          29.2937   41.8329   26.8133 C.3     1  UNL1        0.2086
     41 C          30.2234   40.6354   27.0204 C.3     1  UNL1        0.0513
@<TRIPOS>BOND
     1    35    36    1
     2    36    34    1
     3    34    33    1
     4    33    32    1
     5    32    26    1
     6    26    31   ar
     7    26    27   ar
     8    27    28   ar
     9    28    29   ar
    10    29    30   ar
    11    29    24    1
    12    30    31   ar
    13    24    25    2
    14    24     1    1
    15     1    13    1
    16     1     2    1
    17     2     3    1
    18     2    37    1
    19     3    12    1
    20     3     4    1
    21     4     9   ar
    22     4     5   ar
    23     5     6   ar
    24     6     7   ar
    25     7     8   ar
    26     8     9   ar
    27     9    10    1
    28    10    11    2
    29    11    12    1
    30    12    13    1
    31    13    21    1
    32    13    14    1
    33    14    19   ar
    34    14    15   ar
    35    15    16   ar
    36    16    17   ar
    37    17    18   ar
    38    18    19   ar
    39    19    20    1
    40    20    21   am
    41    21    22    2
    42    37    38    2
    43    37    39    1
    44    39    40    1
    45    40    41    1
    46    20    23    1
@<TRIPOS>MOLECULE
ZINC19105382
 35 39 0 0 0
SMALL
GASTEIGER

@<TRIPOS>ATOM
      1 C          14.9520   39.1144   30.9392 C.3     1  UNL1        0.1143
      2 C          13.7934   38.3058   30.4147 C.2     1  UNL1        0.3178
      3 O          12.9278   37.9307   31.1695 O.2     1  UNL1       -0.2501
      4 O          13.7232   38.0025   29.1091 O.3     1  UNL1       -0.4383
      5 C          12.5121   37.3468   28.6488 C.3     1  UNL1        0.2927
      6 C          12.2741   37.6905   27.2009 C.2     1  UNL1        0.2708
      7 O          13.2151   37.8953   26.4636 O.2     1  UNL1       -0.2707
      8 N          11.0155   37.7702   26.7254 N.am    1  UNL1       -0.2796
      9 H          10.2509   37.6850   27.3397 H       1  UNL1        0.1550
     10 C          10.7960   37.9735   25.3614 C.ar    1  UNL1        0.0705
     11 C          10.7973   36.9151   24.5053 C.ar    1  UNL1        0.0163
     12 C          10.5812   37.0844   23.1394 C.ar    1  UNL1        0.0029
     13 C          10.3600   38.3081   22.6015 C.ar    1  UNL1        0.0214
     14 C          10.3445   39.4601   23.4316 C.ar    1  UNL1        0.1101
     15 C          10.5703   39.2892   24.8632 C.ar    1  UNL1        0.1222
     16 N          10.5288   40.4467   25.5180 N.ar    1  UNL1       -0.1889
     17 S          10.2449   41.5492   24.4412 S.2     1  UNL1        0.1165
     18 N          10.1482   40.7359   23.1052 N.ar    1  UNL1       -0.1901
     19 C          16.2470   38.6379   30.2782 C.3     1  UNL1        0.0402
     20 C          17.4131   38.9363   31.1850 C.2     1  UNL1        0.0052
     21 C          17.1945   39.3389   32.4573 C.2     1  UNL1        0.0352
     22 C          22.5191   37.1235   28.2923 C.ar    1  UNL1        0.0016
     23 C          23.2991   38.1071   28.8844 C.ar    1  UNL1        0.0006
     24 C          22.7149   38.9926   29.7716 C.ar    1  UNL1        0.0080
     25 C          21.3752   38.8832   30.0508 C.ar    1  UNL1        0.0485
     26 C          20.5530   37.8912   29.4640 C.ar    1  UNL1        0.0878
     27 C          21.1917   37.0058   28.5619 C.ar    1  UNL1        0.0196
     28 N          19.2640   37.9082   29.8328 N.ar    1  UNL1       -0.2387
     29 C          18.7819   38.7905   30.6888 C.ar    1  UNL1        0.1068
     30 S          20.2276   39.7663   31.0802 S.2     1  UNL1       -0.0668
     31 C          18.3122   39.4392   33.3946 C.ar    1  UNL1        0.1453
     32 C          18.7545   40.5834   33.9984 C.ar    1  UNL1        0.0407
     33 C          19.8403   40.2170   34.8119 C.ar    1  UNL1        0.0438
     34 C          20.0108   38.8852   34.6712 C.ar    1  UNL1        0.1796
     35 O          19.0841   38.4183   33.8198 O.2     1  UNL1       -0.4504
@<TRIPOS>BOND
     1    22    27   ar
     2    22    23   ar
     3    23    24   ar
     4    24    25   ar
     5    25    30   ar
     6    25    26   ar
     7    26    27   ar
     8    26    28   ar
     9    28    29   ar
    10    29    30   ar
    11    29    20    1
    12    20    21    2
    13    20    19    1
    14    21    31    1
    15    31    35   ar
    16    31    32   ar
    17    32    33   ar
    18    33    34   ar
    19    34    35   ar
    20    19     1    1
    21     1     2    1
    22     2     3    2
    23     2     4    1
    24     4     5    1
    25     5     6    1
    26     6     7    2
    27     6     8   am
    28     8    10    1
    29    10    15   ar
    30    10    11   ar
    31    11    12   ar
    32    12    13   ar
    33    13    14   ar
    34    14    18   ar
    35    14    15   ar
    36    15    16   ar
    37    16    17   ar
    38    17    18   ar
    39     8     9    1
@<TRIPOS>MOLECULE
ZINC18985742
 36 38 0 0 0
SMALL
GASTEIGER

@<TRIPOS>ATOM
      1 C          24.1873   39.6995   25.3183 C.2     1  UNL1        0.0113
      2 C          23.8551   39.3482   26.5861 C.ar    1  UNL1        0.0869
      3 C          24.7110   39.2468   27.7857 C.ar    1  UNL1        0.2676
      4 O          25.9023   39.4912   27.7405 O.2     1  UNL1       -0.2664
      5 N          24.1227   38.8776   28.9110 N.ar    1  UNL1       -0.2807
      6 C          22.7746   38.6048   28.9426 C.ar    1  UNL1        0.0964
      7 C          22.0038   38.2115   30.0183 C.2     1  UNL1        0.0660
      8 S          22.2627   38.8912   27.2563 S.2     1  UNL1       -0.0648
      9 C          29.7090   40.3837   23.8788 C.3     1  UNL1        0.0310
     10 C          28.2612   40.2043   24.2566 C.ar    1  UNL1       -0.0218
     11 C          27.4939   41.3083   24.5859 C.ar    1  UNL1       -0.0043
     12 C          26.1686   41.1529   24.9323 C.ar    1  UNL1       -0.0003
     13 C          25.5994   39.8745   24.9504 C.ar    1  UNL1        0.0006
     14 C          26.3837   38.7630   24.6216 C.ar    1  UNL1       -0.0003
     15 C          27.7059   38.9364   24.2720 C.ar    1  UNL1       -0.0043
     16 C          20.6332   37.9793   29.8498 C.2     1  UNL1        0.1976
     17 O          20.2425   37.2681   28.9389 O.2     1  UNL1       -0.2865
     18 C          19.6580   38.5971   30.7774 C.ar    1  UNL1        0.0390
     19 C          18.2893   38.4812   30.5339 C.ar    1  UNL1        0.0029
     20 C          17.3857   39.0553   31.4042 C.ar    1  UNL1       -0.0042
     21 C          17.8347   39.7530   32.5114 C.ar    1  UNL1       -0.0228
     22 C          19.1910   39.8759   32.7556 C.ar    1  UNL1       -0.0042
     23 C          20.1045   39.3022   31.8953 C.ar    1  UNL1        0.0029
     24 C          16.8424   40.3821   33.4551 C.3     1  UNL1        0.0189
     25 C          17.5921   41.1361   34.5551 C.3     1  UNL1        0.0044
     26 C          15.9525   41.3583   32.6831 C.3     1  UNL1        0.0044
     27 C          15.9751   39.2904   34.0852 C.3     1  UNL1        0.0044
     28 C          24.9151   38.7580   30.1374 C.3     1  UNL1        0.1944
     29 C          25.0853   37.3017   30.4855 C.2     1  UNL1        0.2457
     30 O          25.4462   36.5136   29.6372 O.2     1  UNL1       -0.2730
     31 N          24.8364   36.8749   31.7395 N.am    1  UNL1       -0.3004
     32 H          24.5434   37.5146   32.4281 H       1  UNL1        0.1496
     33 C          25.0019   35.4592   32.0778 C.3     1  UNL1        0.1217
     34 C          26.2228   35.2909   32.9845 C.3     1  UNL1        0.1634
     35 O          27.1426   34.3792   32.3806 O.3     1  UNL1       -0.3493
     36 C          26.5614   33.5494   31.3728 C.3     1  UNL1        0.1742
@<TRIPOS>BOND
     1     9    10    1
     2    10    15   ar
     3    10    11   ar
     4    11    12   ar
     5    12    13   ar
     6    13    14   ar
     7    13     1    1
     8    14    15   ar
     9     1     2    2
    10     2     8   ar
    11     2     3   ar
    12     3     4    2
    13     3     5   ar
    14     5     6   ar
    15     5    28    1
    16     6     7    2
    17     6     8   ar
    18     7    16    1
    19    16    17    2
    20    16    18    1
    21    18    23   ar
    22    18    19   ar
    23    19    20   ar
    24    20    21   ar
    25    21    22   ar
    26    21    24    1
    27    22    23   ar
    28    24    25    1
    29    24    26    1
    30    24    27    1
    31    28    29    1
    32    29    30    2
    33    29    31   am
    34    31    33    1
    35    33    34    1
    36    34    35    1
    37    35    36    1
    38    31    32    1
@<TRIPOS>MOLECULE
ZINC12640044
 33 36 0 0 0
SMALL
GASTEIGER

@<TRIPOS>ATOM
      1 S          26.7620   35.7492   28.3246 S.3     1  UNL1       -0.0850
      2 C          26.7942   34.8377   29.8321 C.ar    1  UNL1        0.1100
      3 C          26.9237   33.4203   29.8156 C.ar    1  UNL1        0.0436
      4 C          27.0570   32.5261   28.6644 C.ar    1  UNL1       -0.0162
      5 C          27.1733   31.2079   28.9241 C.ar    1  UNL1        0.0048
      6 S          27.1203   31.0782   30.6915 S.2     1  UNL1       -0.0726
      7 C          26.9420   32.7996   31.0803 C.ar    1  UNL1        0.1133
      8 N          26.8350   33.4993   32.1935 N.ar    1  UNL1       -0.2242
      9 C          26.7121   34.8118   32.1457 C.ar    1  UNL1        0.1398
     10 N          26.6927   35.4612   30.9957 N.ar    1  UNL1       -0.2245
     11 C          27.3163   30.0963   27.9295 C.3     1  UNL1        0.0327
     12 C          26.9403   30.6355   26.5420 C.3     1  UNL1        0.0055
     13 C          27.6627   31.9676   26.3203 C.3     1  UNL1        0.0050
     14 C          27.0613   33.0412   27.2277 C.3     1  UNL1        0.0267
     15 C          26.5918   35.5877   33.4321 C.3     1  UNL1        0.0587
     16 C          26.8916   34.6642   34.6146 C.3     1  UNL1        0.0080
     17 C          27.5907   36.7466   33.4240 C.3     1  UNL1        0.0080
     18 C          26.7617   37.4372   28.9779 C.3     1  UNL1        0.1487
     19 N          24.3121   37.3131   29.2989 N.am    1  UNL1       -0.2634
     20 C          25.3758   38.0187   28.8663 C.2     1  UNL1        0.2389
     21 O          25.2172   39.1194   28.3825 O.2     1  UNL1       -0.2738
     22 H          24.4409   36.4196   29.6916 H       1  UNL1        0.1568
     23 C          21.1056   38.9193   29.8342 C.ar    1  UNL1        0.0787
     24 C          20.6090   38.7272   28.5878 C.ar    1  UNL1        0.0534
     25 S          21.9710   37.8648   27.8171 S.2     1  UNL1       -0.0512
     26 C          23.0333   37.8471   29.1908 C.ar    1  UNL1        0.1652
     27 N          22.3131   38.4650   30.1065 N.ar    1  UNL1       -0.2277
     28 C          20.2941   39.6304   30.8863 C.3     1  UNL1        0.1557
     29 C          19.4263   38.6334   31.6102 C.2     1  UNL1        0.3231
     30 O          18.8452   37.7751   30.9893 O.2     1  UNL1       -0.2497
     31 O          19.2988   38.6990   32.9449 O.3     1  UNL1       -0.4482
     32 C          20.0077   39.4036   35.1656 C.3     1  UNL1        0.0513
     33 C          20.3513   39.3832   33.6747 C.3     1  UNL1        0.2086
@<TRIPOS>BOND
     1    32    33    1
     2    33    31    1
     3    31    29    1
     4    29    30    2
     5    29    28    1
     6    28    23    1
     7    23    27   ar
     8    23    24   ar
     9    24    25   ar
    10    25    26   ar
    11    26    27   ar
    12    26    19    1
    13    19    20   am
    14    20    21    2
    15    20    18    1
    16    18     1    1
    17     1     2    1
    18     2    10   ar
    19     2     3   ar
    20     3     7   ar
    21     3     4   ar
    22     4    14    1
    23     4     5   ar
    24     5     6   ar
    25     5    11    1
    26     6     7   ar
    27     7     8   ar
    28     8     9   ar
    29     9    10   ar
    30     9    15    1
    31    15    16    1
    32    15    17    1
    33    11    12    1
    34    12    13    1
    35    13    14    1
    36    19    22    1
@<TRIPOS>MOLECULE
ZINC16680279
 38 41 0 0 0
SMALL
GASTEIGER

@<TRIPOS>ATOM
      1 N          18.4909   38.0867   31.1378 N.am    1  UNL1       -0.2668
      2 C          19.3092   38.5627   30.1785 C.2     1  UNL1        0.2718
      3 O          19.0513   39.6116   29.6268 O.2     1  UNL1       -0.2707
      4 H          18.6578   37.2001   31.5318 H       1  UNL1        0.1563
      5 C          13.9391   40.2461   31.5391 C.3     1  UNL1        0.0330
      6 C          15.3696   39.8384   31.7805 C.ar    1  UNL1        0.0025
      7 C          16.1631   40.2533   32.7813 C.ar    1  UNL1        0.0396
      8 N          17.3933   39.6601   32.6598 N.ar    1  UNL1       -0.2983
      9 C          17.4136   38.8461   31.5698 C.ar    1  UNL1        0.1280
     10 C          16.1672   38.9150   30.9636 C.ar    1  UNL1        0.0958
     11 C          15.7644   41.2195   33.8669 C.3     1  UNL1        0.0501
     12 C          18.4722   39.8625   33.5313 C.ar    1  UNL1        0.0670
     13 C          19.2685   40.9929   33.4014 C.ar    1  UNL1        0.0177
     14 C          20.3312   41.1909   34.2609 C.ar    1  UNL1        0.0038
     15 C          20.6039   40.2652   35.2510 C.ar    1  UNL1        0.0297
     16 C          19.8121   39.1369   35.3842 C.ar    1  UNL1        0.1416
     17 C          18.7431   38.9367   34.5289 C.ar    1  UNL1        0.0472
     18 F          20.0807   38.2338   36.3525 F       1  UNL1       -0.2041
     19 C          15.7440   38.2240   29.7829 C.1     1  UNL1        0.1029
     20 N          15.4083   37.6758   28.8463 N.1     1  UNL1       -0.1907
     21 C          20.5448   37.7917   29.7913 C.3     1  UNL1        0.2931
     22 O          20.4336   37.3649   28.4321 O.3     1  UNL1       -0.4353
     23 C          21.3091   37.8921   27.5509 C.2     1  UNL1        0.3419
     24 O          21.2059   37.6390   26.3653 O.2     1  UNL1       -0.2449
     25 C          22.3518   38.7358   28.0068 C.2     1  UNL1        0.0835
     26 C          23.6335   38.3100   27.9627 C.2     1  UNL1        0.0292
     27 C          24.7151   39.1852   28.4358 C.ar    1  UNL1        0.1234
     28 C          25.2709   40.2349   27.7350 C.ar    1  UNL1        0.1179
     29 N          26.2216   40.7691   28.5297 N.ar    1  UNL1       -0.2257
     30 N          26.2333   40.0176   29.7127 N.ar    1  UNL1       -0.0635
     31 N          25.3380   39.0971   29.6248 N.ar    1  UNL1       -0.1287
     32 C          27.0817   41.9122   28.2136 C.3     1  UNL1        0.1556
     33 C          26.2903   43.1879   28.3456 C.ar    1  UNL1        0.0022
     34 C          25.4013   43.3447   29.3924 C.ar    1  UNL1       -0.0023
     35 C          24.6791   44.5168   29.5162 C.ar    1  UNL1       -0.0003
     36 C          24.8380   45.5280   28.5872 C.ar    1  UNL1       -0.0000
     37 C          25.7233   45.3691   27.5373 C.ar    1  UNL1       -0.0003
     38 C          26.4494   44.1991   27.4165 C.ar    1  UNL1       -0.0023
@<TRIPOS>BOND
     1     5     6    1
     2     6    10   ar
     3     6     7   ar
     4     7     8   ar
     5     7    11    1
     6     8     9   ar
     7     8    12    1
     8     9    10   ar
     9     9     1    1
    10    10    19    1
    11    19    20    3
    12     1     2   am
    13     2     3    2
    14     2    21    1
    15    21    22    1
    16    22    23    1
    17    23    24    2
    18    23    25    1
    19    25    26    2
    20    26    27    1
    21    27    31   ar
    22    27    28   ar
    23    28    29   ar
    24    29    30   ar
    25    29    32    1
    26    30    31   ar
    27    32    33    1
    28    33    38   ar
    29    33    34   ar
    30    34    35   ar
    31    35    36   ar
    32    36    37   ar
    33    37    38   ar
    34    12    17   ar
    35    12    13   ar
    36    13    14   ar
    37    14    15   ar
    38    15    16   ar
    39    16    17   ar
    40    16    18    1
    41     1     4    1
@<TRIPOS>MOLECULE
ZINC20032106
 40 44 0 0 0
SMALL
GASTEIGER

@<TRIPOS>ATOM
      1 C          20.4626   39.5629   28.7150 C.2     1  UNL1        0.0341
      2 C          20.0980   39.1870   29.9964 C.2     1  UNL1        0.1856
      3 C          18.6711   39.0403   30.3946 C.2     1  UNL1        0.3012
      4 N          17.7340   38.6400   29.5762 N.2     1  UNL1       -0.2870
      5 N          18.4283   39.3714   31.7413 N.pl3   1  UNL1       -0.0251
      6 C          19.4906   39.3196   32.6248 C.2     1  UNL1        0.4723
      7 N          20.7455   39.0705   32.3353 N.am    1  UNL1       -0.0989
      8 C          21.1067   38.9152   31.0466 C.2     1  UNL1        0.4257
      9 O          22.2367   38.5590   30.7520 O.2     1  UNL1       -0.2137
     10 S          18.7427   39.6705   34.1341 S.3     1  UNL1        0.3182
     11 N          17.1449   39.9214   33.5736 N.2     1  UNL1       -0.1193
     12 C          17.2357   39.7169   32.2870 C.2     1  UNL1        0.4178
     13 H          17.9565   38.4204   28.6426 H       1  UNL1        0.3009
     14 H          16.8056   38.5581   29.8932 H       1  UNL1        0.3009
     15 H          21.4164   38.9978   33.0521 H       1  UNL1        0.4519
     16 H          16.3467   40.1626   34.0971 H       1  UNL1        0.4693
     17 N          22.8441   39.4689   28.0048 N.ar    1  UNL1       -0.3222
     18 C          23.8655   40.3561   27.9108 C.ar    1  UNL1        0.0760
     19 C          23.4320   41.5740   28.3233 C.ar    1  UNL1        0.0201
     20 C          22.0915   41.4523   28.6905 C.ar    1  UNL1        0.0187
     21 C          21.7310   40.1288   28.4811 C.ar    1  UNL1        0.0606
     22 C          22.9106   38.0483   27.6531 C.3     1  UNL1        0.1533
     23 C          24.3668   37.5806   27.6929 C.3     1  UNL1        0.2297
     24 O          24.7689   37.3901   29.0509 O.3     1  UNL1       -0.4737
     25 C          25.6650   35.7611   30.5350 C.ar    1  UNL1        0.0118
     26 C          26.5611   34.7387   30.7815 C.ar    1  UNL1       -0.0013
     27 C          27.4486   34.3437   29.7979 C.ar    1  UNL1       -0.0001
     28 C          27.4422   34.9705   28.5653 C.ar    1  UNL1        0.0031
     29 C          26.5484   35.9931   28.3139 C.ar    1  UNL1        0.0366
     30 C          25.6531   36.3880   29.2976 C.ar    1  UNL1        0.1346
     31 C          25.1661   35.6548   32.9617 C.3     1  UNL1        0.0051
     32 C          24.6973   36.1906   31.6073 C.3     1  UNL1        0.0294
     33 S          15.8123   39.8887   31.2627 S.3     1  UNL1        0.0042
     34 C          14.6145   38.9330   32.2261 C.3     1  UNL1        0.0979
     35 C          13.4321   38.5882   31.3578 C.ar    1  UNL1       -0.0107
     36 C          13.6296   37.9984   30.1233 C.ar    1  UNL1       -0.0034
     37 C          12.5447   37.6774   29.3292 C.ar    1  UNL1       -0.0003
     38 C          11.2627   37.9563   29.7646 C.ar    1  UNL1       -0.0000
     39 C          11.0654   38.5509   30.9969 C.ar    1  UNL1       -0.0003
     40 C          12.1501   38.8668   31.7935 C.ar    1  UNL1       -0.0034
@<TRIPOS>UNITY_ATOM_ATTR
4 1
charge 1
7 1
charge 1
11 1
charge 1
@<TRIPOS>BOND
     1    31    32    1
     2    32    25    1
     3    25    30   ar
     4    25    26   ar
     5    26    27   ar
     6    27    28   ar
     7    28    29   ar
     8    29    30   ar
     9    30    24    1
    10    24    23    1
    11    23    22    1
    12    22    17    1
    13    17    21   ar
    14    17    18   ar
    15    18    19   ar
    16    19    20   ar
    17    20    21   ar
    18    21     1    1
    19     1     2    2
    20     2     8    1
    21     2     3    1
    22     3     4    2
    23     3     5    1
    24     5    12    1
    25     5     6    1
    26     6     7    2
    27     6    10    1
    28     7     8   am
    29     8     9    2
    30    10    11    1
    31    11    12    2
    32    12    33    1
    33    33    34    1
    34    34    35    1
    35    35    40   ar
    36    35    36   ar
    37    36    37   ar
    38    37    38   ar
    39    38    39   ar
    40    39    40   ar
    41     4    13    1
    42     4    14    1
    43     7    15    1
    44    11    16    1
@<TRIPOS>MOLECULE
ZINC19957101
 37 41 0 0 0
SMALL
GASTEIGER

@<TRIPOS>ATOM
      1 N          25.0974   39.2936   28.9451 N.pl3   1  UNL1       -0.2954
      2 H          24.3599   39.3730   29.5924 H       1  UNL1        0.1537
      3 C          24.9232   36.7165   30.5716 C.ar    1  UNL1        0.0112
      4 C          25.0708   35.5667   31.2710 C.ar    1  UNL1        0.0370
      5 S          26.8304   35.2829   31.2386 S.2     1  UNL1       -0.0674
      6 C          27.3263   36.7003   30.2958 C.ar    1  UNL1        0.1152
      7 C          26.1123   37.3669   30.0311 C.ar    1  UNL1        0.0561
      8 C          26.2250   38.5596   29.2675 C.ar    1  UNL1        0.1359
      9 N          27.4226   38.9633   28.8728 N.ar    1  UNL1       -0.2089
     10 C          28.5212   38.2899   29.1615 C.ar    1  UNL1        0.2005
     11 N          28.4789   37.1736   29.8631 N.ar    1  UNL1       -0.2172
     12 C          21.0693   38.4081   29.9753 C.ar    1  UNL1       -0.0222
     13 C          21.6091   37.5688   29.0171 C.ar    1  UNL1       -0.0043
     14 C          22.8596   37.0165   29.2052 C.ar    1  UNL1       -0.0003
     15 C          23.5795   37.3064   30.3636 C.ar    1  UNL1        0.0006
     16 C          23.0281   38.1488   31.3282 C.ar    1  UNL1       -0.0003
     17 C          21.7789   38.6993   31.1265 C.ar    1  UNL1       -0.0043
     18 C          18.7844   38.6042   30.9188 C.3     1  UNL1        0.0050
     19 C          19.7031   39.0079   29.7637 C.3     1  UNL1        0.0264
     20 C          25.0050   39.9249   27.6958 C.ar    1  UNL1        0.0869
     21 C          25.0017   41.3106   27.6169 C.ar    1  UNL1        0.0559
     22 C          24.9053   41.9336   26.3840 C.ar    1  UNL1        0.1531
     23 C          24.8223   41.1700   25.2225 C.ar    1  UNL1        0.0855
     24 C          24.8313   39.7851   25.3007 C.ar    1  UNL1        0.0558
     25 C          24.9225   39.1615   26.5346 C.ar    1  UNL1        0.1533
     26 N          24.7300   41.8010   23.9738 N.pl3   1  UNL1       -0.3003
     27 C          23.9757   40.9744   23.0202 C.3     1  UNL1        0.1231
     28 C          23.8480   41.7251   21.6920 C.3     1  UNL1        0.1636
     29 O          25.1532   42.0544   21.2089 O.3     1  UNL1       -0.3501
     30 C          25.9153   42.8594   22.1125 C.3     1  UNL1        0.1636
     31 C          26.0641   42.1203   23.4449 C.3     1  UNL1        0.1231
     32 O          24.9309   37.8030   26.6113 O.3     1  UNL1       -0.4742
     33 C          25.8602   37.1117   25.7745 C.3     1  UNL1        0.2056
     34 C          26.5342   35.9952   26.5745 C.3     1  UNL1        0.0512
     35 O          24.8973   43.2923   26.3071 O.3     1  UNL1       -0.4742
     36 C          25.3765   44.0095   27.4465 C.3     1  UNL1        0.2056
     37 C          24.2291   44.8109   28.0643 C.3     1  UNL1        0.0512
@<TRIPOS>BOND
     1    18    19    1
     2    19    12    1
     3    12    17   ar
     4    12    13   ar
     5    13    14   ar
     6    14    15   ar
     7    15    16   ar
     8    15     3    1
     9    16    17   ar
    10     3     7   ar
    11     3     4   ar
    12     4     5   ar
    13     5     6   ar
    14     6    11   ar
    15     6     7   ar
    16     7     8   ar
    17     8     9   ar
    18     8     1    1
    19     9    10   ar
    20    10    11   ar
    21     1    20    1
    22    20    25   ar
    23    20    21   ar
    24    21    22   ar
    25    22    23   ar
    26    22    35    1
    27    23    24   ar
    28    23    26    1
    29    24    25   ar
    30    25    32    1
    31    32    33    1
    32    33    34    1
    33    26    31    1
    34    26    27    1
    35    27    28    1
    36    28    29    1
    37    29    30    1
    38    30    31    1
    39    35    36    1
    40    36    37    1
    41     1     2    1
@<TRIPOS>MOLECULE
ZINC14114465
 36 39 0 0 0
SMALL
GASTEIGER

@<TRIPOS>ATOM
      1 N          24.4008   37.4238   28.2337 N.am    1  UNL1       -0.2781
      2 C          24.2360   38.7583   28.1416 C.2     1  UNL1        0.2379
      3 O          24.5393   39.4725   29.0738 O.2     1  UNL1       -0.2738
      4 H          24.1546   36.8440   27.4771 H       1  UNL1        0.1553
      5 C          26.1091   36.1757   29.5625 C.ar    1  UNL1        0.0915
      6 C          26.4202   35.6907   30.8969 C.ar    1  UNL1       -0.0122
      7 C          25.4971   35.9728   31.8412 C.ar    1  UNL1        0.0047
      8 S          24.2351   36.8734   30.9864 S.2     1  UNL1       -0.0767
      9 C          24.9170   36.8677   29.3936 C.ar    1  UNL1        0.0864
     10 C          25.5472   35.6043   33.2920 C.3     1  UNL1        0.0327
     11 C          26.9829   35.1799   33.6337 C.3     1  UNL1        0.0052
     12 C          27.4704   34.1896   32.5720 C.3     1  UNL1        0.0050
     13 C          27.6857   34.9159   31.2432 C.3     1  UNL1        0.0268
     14 C          27.0065   34.5128   35.0105 C.3     1  UNL1        0.0004
     15 C          27.0189   35.9440   28.4386 C.2     1  UNL1        0.3426
     16 O          27.9301   36.7206   28.2237 O.2     1  UNL1       -0.2448
     17 O          26.8464   34.8693   27.6420 O.3     1  UNL1       -0.4454
     18 C          27.1498   32.4605   27.4535 C.3     1  UNL1        0.0513
     19 C          27.8229   33.8008   27.7561 C.3     1  UNL1        0.2089
     20 C          23.6748   39.3630   26.8805 C.3     1  UNL1        0.1501
     21 S          22.4001   38.2711   26.2032 S.3     1  UNL1       -0.0658
     22 C          21.4912   37.9152   27.6701 C.ar    1  UNL1        0.1937
     23 N          21.2147   36.7213   28.1458 N.ar    1  UNL1       -0.1221
     24 N          20.5395   36.8256   29.2343 N.ar    1  UNL1       -0.1282
     25 C          20.3362   38.0915   29.5160 C.ar    1  UNL1        0.1668
     26 N          20.9424   38.8283   28.5246 N.ar    1  UNL1       -0.2884
     27 C          20.9897   40.2880   28.4099 C.3     1  UNL1        0.1340
     28 C          19.6004   38.6250   30.6821 C.ar    1  UNL1        0.0372
     29 C          20.2993   39.1288   31.7808 C.ar    1  UNL1        0.0031
     30 C          19.6103   39.6267   32.8677 C.ar    1  UNL1        0.0014
     31 C          18.2279   39.6293   32.8736 C.ar    1  UNL1        0.0145
     32 C          17.5227   39.1300   31.7849 C.ar    1  UNL1        0.0480
     33 C          18.2060   38.6271   30.6880 C.ar    1  UNL1        0.0176
     34 N          16.1257   39.1353   31.7954 N.pl3   1  UNL1       -0.3041
     35 C          15.3835   39.0553   30.5349 C.3     1  UNL1        0.1122
     36 C          15.4031   39.2210   33.0668 C.3     1  UNL1        0.1122
@<TRIPOS>BOND
     1    18    19    1
     2    19    17    1
     3    17    15    1
     4    15    16    2
     5    15     5    1
     6     5     9   ar
     7     5     6   ar
     8     6    13    1
     9     6     7   ar
    10     7     8   ar
    11     7    10    1
    12     8     9   ar
    13     9     1    1
    14     1     2   am
    15     2     3    2
    16     2    20    1
    17    20    21    1
    18    21    22    1
    19    22    26   ar
    20    22    23   ar
    21    23    24   ar
    22    24    25   ar
    23    25    26   ar
    24    25    28    1
    25    26    27    1
    26    28    33   ar
    27    28    29   ar
    28    29    30   ar
    29    30    31   ar
    30    31    32   ar
    31    32    33   ar
    32    32    34    1
    33    34    35    1
    34    34    36    1
    35    10    11    1
    36    11    12    1
    37    11    14    1
    38    12    13    1
    39     1     4    1
@<TRIPOS>MOLECULE
ZINC17204619
 36 39 0 0 0
SMALL
GASTEIGER

@<TRIPOS>ATOM
      1 C          18.7402   39.0905   30.9837 C.ar    1  UNL1        0.1372
      2 C          17.8352   38.6855   30.0546 C.ar    1  UNL1        0.0553
      3 C          16.5613   38.7156   30.6527 C.ar    1  UNL1        0.1041
      4 N          16.6997   39.1302   31.8946 N.ar    1  UNL1       -0.1639
      5 N          18.0599   39.3674   32.1305 N.ar    1  UNL1       -0.2159
      6 C          18.6212   39.8153   33.3333 C.ar    1  UNL1        0.0842
      7 C          18.3666   41.1045   33.7822 C.ar    1  UNL1        0.0192
      8 C          18.9173   41.5414   34.9711 C.ar    1  UNL1        0.0015
      9 C          19.7306   40.7005   35.7084 C.ar    1  UNL1        0.0001
     10 C          19.9903   39.4179   35.2613 C.ar    1  UNL1        0.0015
     11 C          19.4381   38.9731   34.0761 C.ar    1  UNL1        0.0192
     12 C          15.2824   38.3496   29.9951 C.ar    1  UNL1        0.0194
     13 C          15.2837   37.8396   28.6983 C.ar    1  UNL1        0.0012
     14 C          14.0913   37.5004   28.0918 C.ar    1  UNL1       -0.0042
     15 C          12.8965   37.6655   28.7688 C.ar    1  UNL1       -0.0225
     16 C          12.8888   38.1766   30.0541 C.ar    1  UNL1       -0.0042
     17 C          14.0758   38.5143   30.6722 C.ar    1  UNL1        0.0012
     18 C          11.5977   37.2929   28.1014 C.3     1  UNL1        0.0224
     19 C          11.8337   36.1232   27.1437 C.3     1  UNL1        0.0047
     20 C          11.0640   38.4938   27.3179 C.3     1  UNL1        0.0047
     21 C          20.7890   38.2375   30.1379 C.2     1  UNL1        0.2718
     22 O          20.1953   37.2712   29.7079 O.2     1  UNL1       -0.2707
     23 N          20.1176   39.2028   30.7965 N.am    1  UNL1       -0.2662
     24 H          20.5995   39.9871   31.1455 H       1  UNL1        0.1564
     25 C          22.2775   38.3587   29.9357 C.3     1  UNL1        0.2928
     26 O          22.5723   38.3847   28.5142 O.3     1  UNL1       -0.4370
     27 C          23.6335   39.1089   28.1252 C.2     1  UNL1        0.3409
     28 O          24.7148   38.9145   28.6281 O.2     1  UNL1       -0.2479
     29 C          23.4762   40.1645   27.0612 C.3     1  UNL1        0.2191
     30 C          25.7915   41.8608   26.9107 C.3     1  UNL1        0.0507
     31 C          24.5401   42.3035   27.6242 C.ar    1  UNL1        0.0478
     32 C          24.4741   43.5050   28.2037 C.ar    1  UNL1        0.0528
     33 S          22.8219   43.4949   28.8783 S.2     1  UNL1       -0.0258
     34 C          22.3451   41.9159   28.3400 C.ar    1  UNL1        0.2925
     35 O          21.2851   41.3391   28.5071 O.2     1  UNL1       -0.2594
     36 N          23.4499   41.4887   27.6872 N.ar    1  UNL1       -0.2829
@<TRIPOS>BOND
     1    30    31    1
     2    31    36   ar
     3    31    32   ar
     4    32    33   ar
     5    33    34   ar
     6    34    35    2
     7    34    36   ar
     8    36    29    1
     9    29    27    1
    10    27    28    2
    11    27    26    1
    12    26    25    1
    13    25    21    1
    14    21    22    2
    15    21    23   am
    16    23     1    1
    17     1     5   ar
    18     1     2   ar
    19     2     3   ar
    20     3     4   ar
    21     3    12    1
    22     4     5   ar
    23     5     6    1
    24     6    11   ar
    25     6     7   ar
    26     7     8   ar
    27     8     9   ar
    28     9    10   ar
    29    10    11   ar
    30    12    17   ar
    31    12    13   ar
    32    13    14   ar
    33    14    15   ar
    34    15    16   ar
    35    15    18    1
    36    16    17   ar
    37    18    19    1
    38    18    20    1
    39    23    24    1
@<TRIPOS>MOLECULE
ZINC02967355
 40 44 0 0 0
SMALL
GASTEIGER

@<TRIPOS>ATOM
      1 C          21.9717   39.5449   28.1673 C.3     1  UNL1        0.2671
      2 C          23.3032   39.1926   27.5391 C.2     1  UNL1        0.3670
      3 O          23.6731   38.0995   27.1679 O.2     1  UNL1       -0.2415
      4 N          23.9930   40.3545   27.4788 N.am    1  UNL1       -0.0577
      5 C          23.2363   41.3900   28.0005 C.2     1  UNL1        0.2978
      6 N          22.0659   40.9906   28.4127 N.2     1  UNL1       -0.2533
      7 C          23.8469   42.7371   28.0095 C.ar    1  UNL1        0.1422
      8 C          23.1647   43.8401   28.5125 C.ar    1  UNL1        0.0133
      9 C          23.7729   45.0783   28.5022 C.ar    1  UNL1        0.0006
     10 C          25.0549   45.2287   27.9930 C.ar    1  UNL1        0.0061
     11 C          25.7454   44.1481   27.4902 C.ar    1  UNL1        0.0695
     12 C          25.1498   42.8844   27.4913 C.ar    1  UNL1        0.2338
     13 N          25.8005   41.7980   27.0047 N.2     1  UNL1       -0.1635
     14 C          25.2605   40.6092   26.9978 C.2     1  UNL1        0.4071
     15 H          21.3691   41.5568   28.8167 H       1  UNL1        0.3052
     16 H          26.7099   41.9097   26.6447 H       1  UNL1        0.4577
     17 C          21.7827   38.7884   29.4836 C.3     1  UNL1        0.0704
     18 C          20.5945   37.8328   29.3567 C.3     1  UNL1        0.0900
     19 N          19.4978   38.5395   31.4582 N.am    1  UNL1       -0.3003
     20 C          19.4202   38.3870   30.1213 C.2     1  UNL1        0.2229
     21 O          18.4051   38.6956   29.5337 O.2     1  UNL1       -0.2751
     22 H          20.3218   38.2889   31.9352 H       1  UNL1        0.1497
     23 C          18.3561   39.0782   32.2015 C.3     1  UNL1        0.1193
     24 C          18.2037   40.9665   33.8442 C.ar    1  UNL1        0.1363
     25 C          18.6630   41.6445   34.9642 C.ar    1  UNL1        0.0366
     26 C          19.7642   41.1733   35.6519 C.ar    1  UNL1        0.0031
     27 C          20.4092   40.0270   35.2247 C.ar    1  UNL1       -0.0001
     28 C          19.9570   39.3529   34.1057 C.ar    1  UNL1        0.0004
     29 C          18.8520   39.8168   33.4179 C.ar    1  UNL1        0.0314
     30 C          15.8489   41.2918   33.8029 C.3     1  UNL1        0.2525
     31 O          17.1205   41.4284   33.1656 O.3     1  UNL1       -0.4717
     32 S          26.1949   39.2669   26.3424 S.3     1  UNL1        0.0035
     33 C          27.3550   38.9965   27.7051 C.3     1  UNL1        0.1002
     34 C          26.8409   37.8905   28.5904 C.ar    1  UNL1        0.0168
     35 C          27.1047   36.5715   28.2728 C.ar    1  UNL1       -0.0012
     36 C          26.6339   35.5570   29.0849 C.ar    1  UNL1       -0.0002
     37 C          25.8987   35.8603   30.2160 C.ar    1  UNL1        0.0023
     38 C          25.6341   37.1782   30.5357 C.ar    1  UNL1        0.0293
     39 C          26.1090   38.1956   29.7253 C.ar    1  UNL1        0.1370
     40 F          25.8552   39.4847   30.0397 F       1  UNL1       -0.2045
@<TRIPOS>UNITY_ATOM_ATTR
6 1
charge 1
13 1
charge 1
@<TRIPOS>BOND
     1    30    31    1
     2    31    24    1
     3    24    29   ar
     4    24    25   ar
     5    25    26   ar
     6    26    27   ar
     7    27    28   ar
     8    28    29   ar
     9    29    23    1
    10    23    19    1
    11    19    20   am
    12    20    21    2
    13    20    18    1
    14    18    17    1
    15    17     1    1
    16     1     6    1
    17     1     2    1
    18     2     3    2
    19     2     4   am
    20     4    14    1
    21     4     5    1
    22     5     6    2
    23     5     7    1
    24     7    12   ar
    25     7     8   ar
    26     8     9   ar
    27     9    10   ar
    28    10    11   ar
    29    11    12   ar
    30    12    13    1
    31    13    14    2
    32    14    32    1
    33    32    33    1
    34    33    34    1
    35    34    39   ar
    36    34    35   ar
    37    35    36   ar
    38    36    37   ar
    39    37    38   ar
    40    38    39   ar
    41    39    40    1
    42    19    22    1
    43     6    15    1
    44    13    16    1
@<TRIPOS>MOLECULE
ZINC08847300
 37 40 0 0 0
SMALL
GASTEIGER

@<TRIPOS>ATOM
      1 C          25.9220   40.1483   25.7765 C.3     1  UNL1        0.1663
      2 C          26.4787   41.2177   26.7185 C.3     1  UNL1        0.0346
      3 C          26.6744   38.9625   20.5592 C.3     1  UNL1        0.0320
      4 C          25.9634   40.2765   20.7569 C.ar    1  UNL1       -0.0030
      5 C          25.6883   40.7362   22.0462 C.ar    1  UNL1        0.0768
      6 C          25.0187   41.9790   22.1272 C.ar    1  UNL1        0.1169
      7 N          24.6988   42.5269   23.2923 N.ar    1  UNL1       -0.2186
      8 C          24.9868   41.9446   24.4245 C.ar    1  UNL1        0.1816
      9 N          25.6269   40.7505   24.4740 N.ar    1  UNL1       -0.2715
     10 C          26.0021   40.1089   23.3503 C.ar    1  UNL1        0.2640
     11 O          26.5812   39.0386   23.4057 O.2     1  UNL1       -0.2669
     12 S          24.8081   42.4402   20.4261 S.2     1  UNL1       -0.0617
     13 C          25.5874   41.0204   19.6759 C.ar    1  UNL1        0.1027
     14 C          25.7771   40.7269   18.2538 C.2     1  UNL1        0.3470
     15 O          26.6534   41.2921   17.6277 O.2     1  UNL1       -0.2443
     16 O          24.9799   39.8296   17.6381 O.3     1  UNL1       -0.4451
     17 C          24.4974   40.1763   16.3132 C.3     1  UNL1        0.2087
     18 C          24.4762   38.9240   15.4343 C.3     1  UNL1        0.0439
     19 C          24.6516   37.6826   16.3112 C.3     1  UNL1        0.0038
     20 C          23.1387   38.8419   14.6958 C.3     1  UNL1        0.0038
     21 C          24.6583   39.5723   26.3616 C.2     1  UNL1        0.2469
     22 O          23.9260   38.8930   25.6733 O.2     1  UNL1       -0.2727
     23 N          24.3417   39.8118   27.6495 N.am    1  UNL1       -0.2824
     24 H          24.9676   40.3063   28.2266 H       1  UNL1        0.1549
     25 C          23.1219   39.3572   28.1673 C.ar    1  UNL1        0.0505
     26 C          22.0155   40.1961   28.1766 C.ar    1  UNL1        0.0178
     27 C          20.8135   39.7473   28.6866 C.ar    1  UNL1        0.0388
     28 C          20.7109   38.4581   29.1893 C.ar    1  UNL1        0.1454
     29 C          21.8162   37.6195   29.1806 C.ar    1  UNL1        0.0388
     30 C          23.0188   38.0672   28.6708 C.ar    1  UNL1        0.0178
     31 O          19.5268   38.0164   29.6905 O.3     1  UNL1       -0.4535
     32 C          19.0689   38.5822   30.8379 C.ar    1  UNL1        0.1453
     33 C          17.7048   38.7352   31.0412 C.ar    1  UNL1        0.0375
     34 C          17.2418   39.3055   32.2112 C.ar    1  UNL1        0.0031
     35 C          18.1367   39.7338   33.1743 C.ar    1  UNL1        0.0002
     36 C          19.4967   39.5882   32.9715 C.ar    1  UNL1        0.0031
     37 C          19.9648   39.0133   31.8058 C.ar    1  UNL1        0.0375
@<TRIPOS>BOND
     1     3     4    1
     2     4    13   ar
     3     4     5   ar
     4     5    10   ar
     5     5     6   ar
     6     6     7   ar
     7     6    12   ar
     8     7     8   ar
     9     8     9   ar
    10     9    10   ar
    11     9     1    1
    12    10    11    2
    13     1     2    1
    14     1    21    1
    15    21    22    2
    16    21    23   am
    17    23    25    1
    18    25    30   ar
    19    25    26   ar
    20    26    27   ar
    21    27    28   ar
    22    28    29   ar
    23    28    31    1
    24    29    30   ar
    25    31    32    1
    26    32    37   ar
    27    32    33   ar
    28    33    34   ar
    29    34    35   ar
    30    35    36   ar
    31    36    37   ar
    32    12    13   ar
    33    13    14    1
    34    14    15    2
    35    14    16    1
    36    16    17    1
    37    17    18    1
    38    18    19    1
    39    18    20    1
    40    23    24    1
@<TRIPOS>MOLECULE
ZINC12018740
 35 37 0 0 0
SMALL
GASTEIGER

@<TRIPOS>ATOM
      1 O          11.1660   37.3624   27.5235 O.3     1  UNL1       -0.4411
      2 C          11.0234   37.0628   26.2171 C.2     1  UNL1        0.3450
      3 O          11.1904   35.9217   25.8337 O.2     1  UNL1       -0.2448
      4 C          10.8867   36.7307   23.0638 C.3     1  UNL1        0.0542
      5 C          10.5999   37.9845   23.8491 C.ar    1  UNL1        0.0875
      6 C          10.6655   38.1173   25.2553 C.ar    1  UNL1        0.1188
      7 C          10.3238   39.4236   25.5570 C.ar    1  UNL1        0.1426
      8 N          10.0745   40.0509   24.3958 N.ar    1  UNL1       -0.2359
      9 N          10.2486   39.1371   23.3506 N.ar    1  UNL1       -0.1724
     10 CL         10.2370   40.1237   27.1433 Cl      1  UNL1       -0.0614
     11 C           9.6803   41.4542   24.2487 C.3     1  UNL1        0.1548
     12 C          10.4907   42.0911   23.1493 C.ar    1  UNL1        0.0023
     13 C          11.8714   42.0324   23.1864 C.ar    1  UNL1       -0.0000
     14 C          12.6156   42.6118   22.1761 C.ar    1  UNL1        0.0294
     15 C          11.9779   43.2604   21.1322 C.ar    1  UNL1        0.1401
     16 C          10.5952   43.3231   21.0989 C.ar    1  UNL1        0.0294
     17 C           9.8530   42.7384   22.1074 C.ar    1  UNL1       -0.0000
     18 F          12.7045   43.8313   20.1466 F       1  UNL1       -0.2042
     19 C          12.5163   37.5986   28.0019 C.3     1  UNL1        0.2300
     20 C          13.3662   36.3479   27.7689 C.3     1  UNL1        0.0560
     21 C          12.4793   37.9135   29.4753 C.2     1  UNL1        0.2128
     22 O          11.4435   37.7942   30.0951 O.2     1  UNL1       -0.2875
     23 C          13.6972   38.3648   30.1604 C.ar    1  UNL1        0.0384
     24 C          13.6493   38.7266   31.5126 C.ar    1  UNL1        0.0042
     25 C          14.7888   39.1469   32.1483 C.ar    1  UNL1        0.0148
     26 C          15.9924   39.2139   31.4521 C.ar    1  UNL1        0.0503
     27 C          16.0438   38.8606   30.1064 C.ar    1  UNL1        0.0148
     28 C          14.9103   38.4343   29.4639 C.ar    1  UNL1        0.0042
     29 N          17.1480   39.6412   32.1024 N.am    1  UNL1       -0.2839
     30 C          18.3157   39.0024   31.8907 C.2     1  UNL1        0.2256
     31 O          18.3461   38.0088   31.1959 O.2     1  UNL1       -0.2748
     32 H          17.1116   40.4098   32.7166 H       1  UNL1        0.1549
     33 C          19.5836   39.5225   32.5176 C.3     1  UNL1        0.0768
     34 C          19.7344   38.9382   33.9236 C.3     1  UNL1        0.0096
     35 C          20.7826   39.1085   31.6619 C.3     1  UNL1        0.0096
@<TRIPOS>BOND
     1     4     5    1
     2     5     9   ar
     3     5     6   ar
     4     6     7   ar
     5     6     2    1
     6     7     8   ar
     7     7    10    1
     8     8     9   ar
     9     8    11    1
    10    11    12    1
    11    12    17   ar
    12    12    13   ar
    13    13    14   ar
    14    14    15   ar
    15    15    16   ar
    16    15    18    1
    17    16    17   ar
    18     2     3    2
    19     2     1    1
    20     1    19    1
    21    19    20    1
    22    19    21    1
    23    21    22    2
    24    21    23    1
    25    23    28   ar
    26    23    24   ar
    27    24    25   ar
    28    25    26   ar
    29    26    27   ar
    30    26    29    1
    31    27    28   ar
    32    29    30   am
    33    30    31    2
    34    30    33    1
    35    33    34    1
    36    33    35    1
    37    29    32    1
@<TRIPOS>MOLECULE
ZINC19898183
 40 44 0 0 0
SMALL
GASTEIGER

@<TRIPOS>ATOM
      1 C          25.2233   37.6292   28.5703 C.2     1  UNL1        0.0706
      2 C          25.3072   37.5282   29.9082 C.2     1  UNL1        0.0283
      3 N          24.3093   38.0185   30.7033 N.pl3   1  UNL1       -0.3193
      4 C          23.0634   38.2588   30.1927 C.2     1  UNL1        0.0247
      5 C          22.8824   38.3945   28.8618 C.2     1  UNL1        0.0299
      6 C          24.0488   38.2907   27.9115 C.3     1  UNL1        0.0776
      7 C          21.6062   38.6375   28.3243 C.2     1  UNL1        0.1709
      8 O          21.4752   38.7394   27.1206 O.2     1  UNL1       -0.2916
      9 C          20.3999   38.7732   29.2130 C.3     1  UNL1        0.0736
     10 C          20.8449   39.3068   30.5787 C.3     1  UNL1        0.0357
     11 C          21.9014   38.3582   31.1496 C.3     1  UNL1        0.0457
     12 C          26.5062   36.8648   30.5352 C.3     1  UNL1        0.0470
     13 H          24.4893   38.2007   31.6539 H       1  UNL1        0.1516
     14 C          24.4466   39.6737   27.4640 C.ar    1  UNL1       -0.0139
     15 C          24.8816   40.5884   28.3735 C.ar    1  UNL1       -0.0036
     16 C          25.2538   41.8716   27.9786 C.ar    1  UNL1       -0.0003
     17 C          25.1937   42.2480   26.6717 C.ar    1  UNL1       -0.0000
     18 C          24.7502   41.3310   25.7041 C.ar    1  UNL1       -0.0003
     19 C          24.3761   40.0238   26.1051 C.ar    1  UNL1       -0.0033
     20 C          23.9276   39.1083   25.1378 C.ar    1  UNL1       -0.0003
     21 C          23.8675   39.4845   23.8313 C.ar    1  UNL1       -0.0000
     22 C          24.2393   40.7685   23.4363 C.ar    1  UNL1       -0.0000
     23 C          24.6740   41.6829   24.3455 C.ar    1  UNL1       -0.0000
     24 C          19.6603   39.3703   31.5081 C.ar    1  UNL1       -0.0185
     25 C          19.8371   39.7491   32.8259 C.ar    1  UNL1       -0.0009
     26 C          18.7536   39.8090   33.6824 C.ar    1  UNL1        0.0397
     27 C          17.4869   39.4893   33.2205 C.ar    1  UNL1        0.1724
     28 C          17.3089   39.1084   31.8939 C.ar    1  UNL1        0.1721
     29 C          18.3985   39.0551   31.0395 C.ar    1  UNL1        0.0358
     30 O          16.0677   38.7937   31.4359 O.3     1  UNL1       -0.4684
     31 C          15.8945   38.7364   30.0186 C.3     1  UNL1        0.2526
     32 O          16.4199   39.5480   34.0616 O.3     1  UNL1       -0.4684
     33 C          15.9074   40.8458   34.3698 C.3     1  UNL1        0.2526
     34 C          26.2619   37.1012   27.7684 C.2     1  UNL1        0.3387
     35 O          26.1069   36.0404   27.1928 O.2     1  UNL1       -0.2452
     36 O          27.4249   37.7739   27.6417 O.3     1  UNL1       -0.4456
     37 C          27.9387   37.9378   26.3183 C.3     1  UNL1        0.2088
     38 C          28.1776   39.4240   26.0444 C.3     1  UNL1        0.0475
     39 C          27.4540   38.4531   23.8590 C.3     1  UNL1        0.0001
     40 C          27.7644   39.7507   24.6079 C.3     1  UNL1        0.0038
@<TRIPOS>BOND
     1    39    40    1
     2    40    38    1
     3    38    37    1
     4    37    36    1
     5    36    34    1
     6    34    35    2
     7    34     1    1
     8     1     6    1
     9     1     2    2
    10     2     3    1
    11     2    12    1
    12     3     4    1
    13     4    11    1
    14     4     5    2
    15     5     6    1
    16     5     7    1
    17     6    14    1
    18    14    19   ar
    19    14    15   ar
    20    15    16   ar
    21    16    17   ar
    22    17    18   ar
    23    18    23   ar
    24    18    19   ar
    25    19    20   ar
    26    20    21   ar
    27    21    22   ar
    28    22    23   ar
    29     7     8    2
    30     7     9    1
    31     9    10    1
    32    10    11    1
    33    10    24    1
    34    24    29   ar
    35    24    25   ar
    36    25    26   ar
    37    26    27   ar
    38    27    28   ar
    39    27    32    1
    40    28    29   ar
    41    28    30    1
    42    30    31    1
    43    32    33    1
    44     3    13    1
@<TRIPOS>MOLECULE
ZINC23896073
 35 38 0 0 0
SMALL
GASTEIGER

@<TRIPOS>ATOM
      1 S          11.0634   36.5372   27.0685 S.3     1  UNL1       -0.0686
      2 C          14.1916   38.0192   28.8672 C.ar    1  UNL1        0.1885
      3 N          14.5890   37.9420   27.6287 N.ar    1  UNL1       -0.1290
      4 N          13.6505   37.4619   26.8933 N.ar    1  UNL1       -0.1223
      5 C          12.5944   37.2048   27.6296 C.ar    1  UNL1        0.1936
      6 N          12.9088   37.5477   28.9133 N.ar    1  UNL1       -0.2866
      7 C          14.9986   38.5279   30.0339 C.3     1  UNL1        0.2703
      8 O          16.3856   38.2768   29.7992 O.3     1  UNL1       -0.4673
      9 C          17.1721   40.4736   34.0861 C.3     1  UNL1        0.0311
     10 C          17.6795   39.7665   32.8558 C.ar    1  UNL1       -0.0188
     11 C          19.0345   39.5398   32.6987 C.ar    1  UNL1       -0.0041
     12 C          19.5025   38.8859   31.5742 C.ar    1  UNL1        0.0028
     13 C          18.6175   38.4619   30.6017 C.ar    1  UNL1        0.0369
     14 C          17.2583   38.6932   30.7542 C.ar    1  UNL1        0.1389
     15 C          16.7911   39.3501   31.8836 C.ar    1  UNL1        0.0327
     16 C          12.0491   37.4366   30.0943 C.3     1  UNL1        0.1357
     17 C          11.4976   38.7948   30.4438 C.2     1  UNL1       -0.0017
     18 C          11.8934   39.4015   31.5352 C.2     1  UNL1       -0.0029
     19 C          10.9922   37.2632   25.4120 C.3     1  UNL1        0.1171
     20 C          10.8058   36.1527   24.3761 C.3     1  UNL1        0.0204
     21 C           9.8331   38.2230   25.3336 C.2     1  UNL1        0.1943
     22 O           8.7121   37.8059   25.1157 O.2     1  UNL1       -0.2897
     23 C          10.0478   39.5995   25.5123 C.2     1  UNL1        0.1234
     24 C          10.4116   40.4031   24.4155 C.2     1  UNL1        0.0913
     25 N          10.6056   40.0285   23.1241 N.pl3   1  UNL1       -0.3066
     26 C          10.9587   40.9678   22.1748 C.ar    1  UNL1        0.0548
     27 C          11.1953   40.7753   20.8042 C.ar    1  UNL1        0.0151
     28 C          11.5475   41.8304   19.9968 C.ar    1  UNL1        0.0013
     29 C          11.6794   43.1117   20.5061 C.ar    1  UNL1        0.0006
     30 C          11.4533   43.3301   21.8535 C.ar    1  UNL1        0.0078
     31 C          11.1003   42.2756   22.6621 C.ar    1  UNL1        0.0440
     32 S          10.7274   42.1080   24.3895 S.3     1  UNL1       -0.0703
     33 H          10.4943   39.0854   22.8643 H       1  UNL1        0.1527
     34 C           9.8967   40.1852   26.8102 C.1     1  UNL1        0.1051
     35 N           9.7769   40.6498   27.8399 N.1     1  UNL1       -0.1907
@<TRIPOS>BOND
     1     9    10    1
     2    10    15   ar
     3    10    11   ar
     4    11    12   ar
     5    12    13   ar
     6    13    14   ar
     7    14    15   ar
     8    14     8    1
     9     8     7    1
    10     7     2    1
    11     2     6   ar
    12     2     3   ar
    13     3     4   ar
    14     4     5   ar
    15     5     6   ar
    16     5     1    1
    17     6    16    1
    18    16    17    1
    19    17    18    2
    20     1    19    1
    21    19    20    1
    22    19    21    1
    23    21    22    2
    24    21    23    1
    25    23    24    2
    26    23    34    1
    27    24    32    1
    28    24    25    1
    29    25    26    1
    30    26    31   ar
    31    26    27   ar
    32    27    28   ar
    33    28    29   ar
    34    29    30   ar
    35    30    31   ar
    36    31    32    1
    37    34    35    3
    38    25    33    1
@<TRIPOS>MOLECULE
ZINC23198770
 37 40 0 0 0
SMALL
GASTEIGER

@<TRIPOS>ATOM
      1 C          21.8059   37.9862   29.7372 C.ar    1  UNL1        0.0389
      2 C          20.6340   38.5320   30.2275 C.ar    1  UNL1        0.1019
      3 N          20.8529   38.8996   31.5029 N.ar    1  UNL1       -0.2282
      4 N          22.1700   38.5984   31.8604 N.ar    1  UNL1       -0.1648
      5 C          22.7809   38.0489   30.8336 C.ar    1  UNL1        0.1090
      6 C          24.1846   37.5827   30.7910 C.ar    1  UNL1        0.0955
      7 C          24.5428   36.3993   31.3811 C.ar    1  UNL1        0.0111
      8 C          25.9440   35.9838   31.3056 C.ar    1  UNL1        0.0349
      9 C          26.3617   34.7806   31.8889 C.ar    1  UNL1        0.0030
     10 C          27.6740   34.4092   31.8135 C.ar    1  UNL1        0.0002
     11 C          28.5970   35.2158   31.1629 C.ar    1  UNL1        0.0031
     12 C          28.2065   36.4037   30.5817 C.ar    1  UNL1        0.0376
     13 C          26.8765   36.8033   30.6456 C.ar    1  UNL1        0.1487
     14 O          26.4894   37.9660   30.0793 O.2     1  UNL1       -0.4210
     15 C          25.2148   38.3830   30.1217 C.ar    1  UNL1        0.3472
     16 O          24.9100   39.4382   29.5977 O.2     1  UNL1       -0.2444
     17 C          19.9046   39.4938   32.3449 C.ar    1  UNL1        0.0828
     18 C          18.5494   39.2894   32.1203 C.ar    1  UNL1        0.0191
     19 C          17.6169   39.8720   32.9560 C.ar    1  UNL1        0.0015
     20 C          18.0311   40.6677   34.0085 C.ar    1  UNL1        0.0001
     21 C          19.3795   40.8779   34.2314 C.ar    1  UNL1        0.0015
     22 C          20.3172   40.2933   33.4029 C.ar    1  UNL1        0.0191
     23 C          22.4351   38.2739   27.3946 C.2     1  UNL1        0.0820
     24 C          22.0307   37.4515   28.3901 C.2     1  UNL1        0.0098
     25 C          22.6519   37.7581   26.0950 C.2     1  UNL1        0.3418
     26 O          21.7513   37.1873   25.5088 O.2     1  UNL1       -0.2449
     27 O          23.8578   37.8993   25.5054 O.3     1  UNL1       -0.4397
     28 C          24.9980   37.9523   26.3651 C.3     1  UNL1        0.2443
     29 C          25.8676   39.1526   25.9857 C.3     1  UNL1        0.0575
     30 N          26.7031   36.3441   27.1556 N.am    1  UNL1       -0.3031
     31 C          25.7989   36.6845   26.2159 C.2     1  UNL1        0.2628
     32 O          25.6298   35.9706   25.2502 O.2     1  UNL1       -0.2712
     33 H          26.8403   36.9236   27.9395 H       1  UNL1        0.1495
     34 C          27.4817   35.1116   27.0104 C.3     1  UNL1        0.0717
     35 C          28.9617   35.4114   27.2565 C.3     1  UNL1        0.0213
     36 C          27.1680   32.6720   27.4494 C.3     1  UNL1        0.0017
     37 C          26.9946   34.0778   28.0278 C.3     1  UNL1        0.0196
@<TRIPOS>BOND
     1    36    37    1
     2    37    34    1
     3    34    35    1
     4    34    30    1
     5    30    31   am
     6    31    32    2
     7    31    28    1
     8    28    29    1
     9    28    27    1
    10    27    25    1
    11    25    26    2
    12    25    23    1
    13    23    24    2
    14    24     1    1
    15     1     5   ar
    16     1     2   ar
    17     2     3   ar
    18     3     4   ar
    19     3    17    1
    20     4     5   ar
    21     5     6    1
    22     6    15   ar
    23     6     7   ar
    24     7     8   ar
    25     8    13   ar
    26     8     9   ar
    27     9    10   ar
    28    10    11   ar
    29    11    12   ar
    30    12    13   ar
    31    13    14   ar
    32    14    15   ar
    33    15    16    2
    34    17    22   ar
    35    17    18   ar
    36    18    19   ar
    37    19    20   ar
    38    20    21   ar
    39    21    22   ar
    40    30    33    1
@<TRIPOS>MOLECULE
ZINC18250301
 38 41 0 0 0
SMALL
GASTEIGER

@<TRIPOS>ATOM
      1 C          25.2664   39.0507   26.9977 C.2     1  UNL1        0.0124
      2 C          25.5955   39.0888   25.6774 C.2     1  UNL1        0.0900
      3 C          24.8819   39.6652   24.5851 C.2     1  UNL1        0.2603
      4 O          23.8151   40.2255   24.7626 O.2     1  UNL1       -0.2691
      5 N          25.4073   39.5765   23.3755 N.am    1  UNL1       -0.2216
      6 C          26.6175   38.9391   23.1910 C.2     1  UNL1        0.3177
      7 N          27.2906   38.7535   22.0768 N.2     1  UNL1       -0.1845
      8 S          27.0405   38.4372   24.8524 S.3     1  UNL1        0.0025
      9 H          24.9346   39.9659   22.6047 H       1  UNL1        0.1612
     10 H          28.1510   38.2753   22.0952 H       1  UNL1        0.4554
     11 N          21.8822   39.9482   28.0166 N.ar    1  UNL1       -0.3208
     12 C          22.7954   39.0614   27.5431 C.ar    1  UNL1        0.0379
     13 C          24.0197   39.6625   27.4590 C.ar    1  UNL1        0.0137
     14 C          23.8367   41.0500   27.9258 C.ar    1  UNL1        0.0169
     15 C          22.4781   41.1684   28.2608 C.ar    1  UNL1        0.0601
     16 C          21.9972   42.3825   28.7396 C.ar    1  UNL1        0.0172
     17 C          22.8527   43.4536   28.8809 C.ar    1  UNL1        0.0015
     18 C          24.1943   43.3349   28.5491 C.ar    1  UNL1        0.0001
     19 C          24.6898   42.1403   28.0730 C.ar    1  UNL1        0.0015
     20 C          22.5032   37.6312   27.1685 C.3     1  UNL1        0.0500
     21 C          20.4648   39.6509   28.2376 C.3     1  UNL1        0.2163
     22 C          20.3060   38.8937   29.5308 C.2     1  UNL1        0.3403
     23 O          19.8530   37.7736   29.5233 O.2     1  UNL1       -0.2479
     24 O          20.6677   39.4636   30.6911 O.3     1  UNL1       -0.4472
     25 C          20.1167   40.1136   32.9723 C.3     1  UNL1        0.0513
     26 C          19.9409   39.0565   31.8803 C.3     1  UNL1        0.2086
     27 C          26.7950   39.2250   20.8914 C.ar    1  UNL1        0.2254
     28 C          26.8274   40.5946   20.6136 C.ar    1  UNL1        0.0692
     29 C          26.3277   41.0716   19.4185 C.ar    1  UNL1        0.0063
     30 C          25.7932   40.2009   18.4893 C.ar    1  UNL1        0.0068
     31 C          25.7541   38.8297   18.7532 C.ar    1  UNL1        0.0815
     32 C          26.2615   38.3399   19.9555 C.ar    1  UNL1        0.0756
     33 C          25.1822   37.9000   17.7573 C.2     1  UNL1        0.3413
     34 O          25.7490   36.8555   17.5059 O.2     1  UNL1       -0.2449
     35 O          24.0324   38.2108   17.1281 O.3     1  UNL1       -0.4492
     36 C          24.1436   38.8299   15.8193 C.3     1  UNL1        0.1694
     37 C          23.7509   37.8177   14.7414 C.3     1  UNL1        0.0473
     38 C          23.2106   40.0403   15.7468 C.3     1  UNL1        0.0473
@<TRIPOS>UNITY_ATOM_ATTR
7 1
charge 1
@<TRIPOS>BOND
     1    25    26    1
     2    26    24    1
     3    24    22    1
     4    22    23    2
     5    22    21    1
     6    21    11    1
     7    11    15   ar
     8    11    12   ar
     9    12    13   ar
    10    12    20    1
    11    13    14   ar
    12    13     1    1
    13    14    19   ar
    14    14    15   ar
    15    15    16   ar
    16    16    17   ar
    17    17    18   ar
    18    18    19   ar
    19     1     2    2
    20     2     8    1
    21     2     3    1
    22     3     4    2
    23     3     5   am
    24     5     6    1
    25     6     7    2
    26     6     8    1
    27     7    27    1
    28    27    32   ar
    29    27    28   ar
    30    28    29   ar
    31    29    30   ar
    32    30    31   ar
    33    31    32   ar
    34    31    33    1
    35    33    34    2
    36    33    35    1
    37    35    36    1
    38    36    37    1
    39    36    38    1
    40     5     9    1
    41     7    10    1
@<TRIPOS>MOLECULE
ZINC13561923
 35 37 0 0 0
SMALL
GASTEIGER

@<TRIPOS>ATOM
      1 N          24.9074   38.7430   27.9699 N.am    1  UNL1       -0.2500
      2 C          23.6446   38.7646   27.4994 C.2     1  UNL1        0.2565
      3 O          23.2818   39.6693   26.7776 O.2     1  UNL1       -0.2723
      4 C          25.3555   37.6508   28.7219 C.ar    1  UNL1        0.0543
      5 C          26.1207   36.6596   28.1210 C.ar    1  UNL1        0.0158
      6 C          26.5620   35.5834   28.8653 C.ar    1  UNL1        0.0126
      7 C          26.2424   35.4920   30.2088 C.ar    1  UNL1        0.0616
      8 C          25.4807   36.4784   30.8100 C.ar    1  UNL1        0.0832
      9 C          25.0408   37.5594   30.0711 C.ar    1  UNL1        0.0196
     10 CL         26.7987   34.1378   31.1417 Cl      1  UNL1       -0.0823
     11 C          25.1350   36.3758   32.2732 C.3     1  UNL1        0.4194
     12 F          24.1546   37.3228   32.5882 F       1  UNL1       -0.1658
     13 F          24.6501   35.0929   32.5490 F       1  UNL1       -0.1658
     14 F          26.2796   36.6166   33.0407 F       1  UNL1       -0.1658
     15 C          25.8091   39.8655   27.6994 C.3     1  UNL1        0.1558
     16 C          25.5071   40.9934   28.6522 C.2     1  UNL1        0.2408
     17 O          25.9384   40.9619   29.7853 O.2     1  UNL1       -0.2733
     18 N          24.7578   42.0371   28.2452 N.am    1  UNL1       -0.3046
     19 H          24.4077   42.0627   27.3253 H       1  UNL1        0.1494
     20 C          24.4642   43.1334   29.1714 C.3     1  UNL1        0.0717
     21 C          25.4256   44.2943   28.9086 C.3     1  UNL1        0.0213
     22 C          23.0243   43.6063   28.9619 C.3     1  UNL1        0.0213
     23 C          28.0083   39.5351   26.5606 C.3     1  UNL1        0.0023
     24 C          27.2583   39.4125   27.8884 C.3     1  UNL1        0.0295
     25 C          22.6835   37.6648   27.8701 C.3     1  UNL1        0.2361
     26 N          21.5869   38.2221   28.6657 N.ar    1  UNL1       -0.1414
     27 N          21.5720   38.3168   29.9507 N.ar    1  UNL1       -0.1287
     28 C          20.4247   38.8674   30.3014 C.ar    1  UNL1        0.2117
     29 N          19.7485   39.1003   29.1659 N.ar    1  UNL1       -0.1072
     30 N          20.4899   38.6988   28.1899 N.ar    1  UNL1       -0.0446
     31 C          19.9728   39.1690   31.6773 C.ar    1  UNL1        0.0687
     32 C          20.7194   39.4783   32.7818 C.ar    1  UNL1        0.0102
     33 C          20.0705   39.7283   33.9713 C.ar    1  UNL1        0.0076
     34 C          18.7159   39.6491   34.0150 C.ar    1  UNL1        0.0355
     35 S          18.3120   39.2165   32.3308 S.2     1  UNL1       -0.0832
@<TRIPOS>BOND
     1    23    24    1
     2    24    15    1
     3    15    16    1
     4    15     1    1
     5    16    17    2
     6    16    18   am
     7    18    20    1
     8    20    21    1
     9    20    22    1
    10     1     4    1
    11     1     2   am
    12     4     9   ar
    13     4     5   ar
    14     5     6   ar
    15     6     7   ar
    16     7     8   ar
    17     7    10    1
    18     8     9   ar
    19     8    11    1
    20    11    12    1
    21    11    13    1
    22    11    14    1
    23     2     3    2
    24     2    25    1
    25    25    26    1
    26    26    30   ar
    27    26    27   ar
    28    27    28   ar
    29    28    29   ar
    30    28    31    1
    31    29    30   ar
    32    31    35   ar
    33    31    32   ar
    34    32    33   ar
    35    33    34   ar
    36    34    35   ar
    37    18    19    1
@<TRIPOS>MOLECULE
ZINC03276532
 39 42 0 0 0
SMALL
GASTEIGER

@<TRIPOS>ATOM
      1 C          25.9221   39.5059   26.9731 C.2     1  UNL1        0.2708
      2 O          25.6275   40.1875   26.0139 O.2     1  UNL1       -0.2707
      3 N          25.4022   39.7867   28.1844 N.am    1  UNL1       -0.2799
      4 H          25.6807   39.2661   28.9722 H       1  UNL1        0.1550
      5 C          24.4651   40.8198   28.3225 C.ar    1  UNL1        0.0638
      6 C          24.8922   42.1248   28.5158 C.ar    1  UNL1        0.0198
      7 C          23.9662   43.1413   28.6570 C.ar    1  UNL1        0.0727
      8 C          22.6129   42.8623   28.6008 C.ar    1  UNL1        0.0052
      9 C          22.1782   41.5653   28.4032 C.ar    1  UNL1        0.0157
     10 C          23.1004   40.5389   28.2605 C.ar    1  UNL1        0.0616
     11 N          22.6628   39.2252   28.0608 N.pl3   1  UNL1       -0.3018
     12 C          21.5441   38.9006   28.9578 C.3     1  UNL1        0.1231
     13 C          21.1363   37.4400   28.7480 C.3     1  UNL1        0.1636
     14 O          20.8052   37.2349   27.3719 O.3     1  UNL1       -0.3501
     15 C          21.8730   37.5406   26.4710 C.3     1  UNL1        0.1636
     16 C          22.2877   39.0025   26.6570 C.3     1  UNL1        0.1231
     17 C          24.4328   44.5579   28.8731 C.3     1  UNL1        0.4186
     18 F          24.7618   44.7400   30.2206 F       1  UNL1       -0.1659
     19 F          25.5591   44.8039   28.0807 F       1  UNL1       -0.1659
     20 F          23.4105   45.4448   28.5187 F       1  UNL1       -0.1659
     21 C          26.8695   38.3453   26.8103 C.3     1  UNL1        0.2930
     22 O          26.4759   37.2704   27.7035 O.3     1  UNL1       -0.4353
     23 C          26.9746   37.3012   28.9552 C.2     1  UNL1        0.3422
     24 O          27.9333   38.0032   29.2101 O.2     1  UNL1       -0.2449
     25 C          26.8618   35.2057   30.3044 C.ar    1  UNL1        0.0357
     26 C          26.2702   34.4450   31.3063 C.ar    1  UNL1        0.0067
     27 C          25.1946   34.9453   32.0097 C.ar    1  UNL1        0.0005
     28 C          24.6951   36.2072   31.7258 C.ar    1  UNL1        0.0002
     29 C          25.2707   36.9786   30.7405 C.ar    1  UNL1        0.0069
     30 C          26.3579   36.4844   30.0140 C.ar    1  UNL1        0.0816
     31 S          28.2365   34.5698   29.4041 S.3     1  UNL1       -0.0860
     32 C          27.0389   30.2977   28.4421 C.ar    1  UNL1        0.0007
     33 C          27.5558   30.6151   29.6882 C.ar    1  UNL1        0.0006
     34 C          27.9254   31.9117   29.9818 C.ar    1  UNL1        0.0072
     35 C          27.7711   32.9120   29.0301 C.ar    1  UNL1        0.0391
     36 C          27.2478   32.5938   27.7666 C.ar    1  UNL1        0.0744
     37 C          26.8832   31.2750   27.4832 C.ar    1  UNL1        0.0108
     38 C          27.0891   33.6143   26.7745 C.1     1  UNL1        0.1009
     39 N          26.9631   34.4239   25.9876 N.1     1  UNL1       -0.1908
@<TRIPOS>BOND
     1    32    37   ar
     2    32    33   ar
     3    33    34   ar
     4    34    35   ar
     5    35    36   ar
     6    35    31    1
     7    36    37   ar
     8    36    38    1
     9    38    39    3
    10    31    25    1
    11    25    30   ar
    12    25    26   ar
    13    26    27   ar
    14    27    28   ar
    15    28    29   ar
    16    29    30   ar
    17    30    23    1
    18    23    24    2
    19    23    22    1
    20    22    21    1
    21    21     1    1
    22     1     2    2
    23     1     3   am
    24     3     5    1
    25     5    10   ar
    26     5     6   ar
    27     6     7   ar
    28     7     8   ar
    29     7    17    1
    30     8     9   ar
    31     9    10   ar
    32    10    11    1
    33    11    16    1
    34    11    12    1
    35    12    13    1
    36    13    14    1
    37    14    15    1
    38    15    16    1
    39    17    18    1
    40    17    19    1
    41    17    20    1
    42     3     4    1
@<TRIPOS>MOLECULE
ZINC13602901
 35 37 0 0 0
SMALL
GASTEIGER

@<TRIPOS>ATOM
      1 N          23.4502   38.5429   28.2932 N.3     1  UNL1       -0.1417
      2 S          24.1699   39.5216   27.1678 S.O2    1  UNL1        0.0640
      3 O          25.4586   38.9763   26.9201 O.2     1  UNL1       -0.1528
      4 O          23.2158   39.7216   26.1339 O.2     1  UNL1       -0.1528
      5 C          25.0423   44.8941   29.7718 C.3     1  UNL1        0.0310
      6 C          24.8244   43.5523   29.1212 C.ar    1  UNL1       -0.0218
      7 C          25.8909   42.6925   28.9364 C.ar    1  UNL1       -0.0029
      8 C          25.6911   41.4617   28.3396 C.ar    1  UNL1        0.0196
      9 C          24.4246   41.0904   27.9285 C.ar    1  UNL1        0.1222
     10 C          23.3590   41.9522   28.1089 C.ar    1  UNL1        0.0196
     11 C          23.5580   43.1812   28.7097 C.ar    1  UNL1       -0.0029
     12 C          23.8748   38.6021   29.6941 C.3     1  UNL1        0.1226
     13 C          24.6404   37.3512   30.0403 C.ar    1  UNL1       -0.0045
     14 C          25.7152   36.9613   29.2633 C.ar    1  UNL1       -0.0029
     15 C          26.4208   35.8167   29.5839 C.ar    1  UNL1       -0.0003
     16 C          26.0448   35.0560   30.6753 C.ar    1  UNL1       -0.0000
     17 C          24.9666   35.4427   31.4490 C.ar    1  UNL1       -0.0003
     18 C          24.2645   36.5905   31.1316 C.ar    1  UNL1       -0.0029
     19 C          22.3889   37.6179   27.8880 C.3     1  UNL1        0.1824
     20 C          21.0734   38.0819   28.4581 C.2     1  UNL1        0.2592
     21 O          20.4730   38.9956   27.9325 O.2     1  UNL1       -0.2718
     22 N          20.5639   37.4817   29.5520 N.am    1  UNL1       -0.2047
     23 H          21.0511   36.7403   29.9787 H       1  UNL1        0.1773
     24 N          19.3408   37.9131   30.0820 N.2     1  UNL1       -0.1776
     25 C          19.3101   38.5337   31.2211 C.2     1  UNL1        0.1175
     26 C          18.0226   38.9879   31.7789 C.ar    1  UNL1        0.0246
     27 C          16.8500   38.8628   31.0299 C.ar    1  UNL1        0.0015
     28 C          15.6486   39.2844   31.5601 C.ar    1  UNL1        0.0000
     29 C          15.6039   39.8356   32.8287 C.ar    1  UNL1       -0.0001
     30 C          16.7621   39.9684   33.5737 C.ar    1  UNL1        0.0039
     31 C          17.9707   39.5510   33.0561 C.ar    1  UNL1        0.0730
     32 C          19.2313   39.6964   33.8690 C.3     1  UNL1        0.4186
     33 F          19.6842   38.4310   34.2575 F       1  UNL1       -0.1659
     34 F          20.2136   40.3267   33.0977 F       1  UNL1       -0.1659
     35 F          18.9663   40.4663   35.0066 F       1  UNL1       -0.1659
@<TRIPOS>BOND
     1     5     6    1
     2     6    11   ar
     3     6     7   ar
     4     7     8   ar
     5     8     9   ar
     6     9    10   ar
     7     9     2    1
     8    10    11   ar
     9     2     3    2
    10     2     4    2
    11     2     1    1
    12     1    12    1
    13     1    19    1
    14    12    13    1
    15    13    18   ar
    16    13    14   ar
    17    14    15   ar
    18    15    16   ar
    19    16    17   ar
    20    17    18   ar
    21    19    20    1
    22    20    21    2
    23    20    22   am
    24    22    24    1
    25    24    25    2
    26    25    26    1
    27    26    31   ar
    28    26    27   ar
    29    27    28   ar
    30    28    29   ar
    31    29    30   ar
    32    30    31   ar
    33    31    32    1
    34    32    33    1
    35    32    34    1
    36    32    35    1
    37    22    23    1
@<TRIPOS>MOLECULE
ZINC16949879
 36 38 0 0 0
SMALL
GASTEIGER

@<TRIPOS>ATOM
      1 C          23.3763   38.7679   27.5187 C.2     1  UNL1        0.3513
      2 O          23.4301   38.6533   26.3093 O.2     1  UNL1       -0.2441
      3 C          24.5787   38.5472   28.3309 C.2     1  UNL1        0.1439
      4 C          25.0199   37.2611   28.5767 C.2     1  UNL1        0.0180
      5 C          26.0662   37.0360   29.5070 C.ar    1  UNL1        0.0136
      6 C          27.5058   36.9611   29.2205 C.ar    1  UNL1        0.0139
      7 C          28.1152   36.7405   30.3971 C.ar    1  UNL1        0.0372
      8 N          27.1744   36.6649   31.3837 N.ar    1  UNL1       -0.3315
      9 C          25.9421   36.8420   30.8731 C.ar    1  UNL1        0.0372
     10 C          24.6518   36.8307   31.6517 C.3     1  UNL1        0.0500
     11 C          29.6020   36.5956   30.5961 C.3     1  UNL1        0.0500
     12 C          27.4661   36.4301   32.8000 C.3     1  UNL1        0.1348
     13 C          27.4058   34.9292   33.0911 C.3     1  UNL1        0.1378
     14 C          27.1368   34.6756   34.5964 C.3     1  UNL1        0.0341
     15 C          27.7300   33.2599   34.7978 C.3     1  UNL1        0.0346
     16 C          28.7090   33.0895   33.6199 C.3     1  UNL1        0.1422
     17 O          28.6945   34.3165   32.8714 O.3     1  UNL1       -0.3543
     18 C          25.2946   39.6648   28.8685 C.1     1  UNL1        0.1070
     19 N          25.8626   40.5514   29.2950 N.1     1  UNL1       -0.1906
     20 O          22.2119   39.0979   28.1136 O.3     1  UNL1       -0.4393
     21 C          21.6388   38.1246   29.0260 C.3     1  UNL1        0.2447
     22 C          20.8671   37.0711   28.2289 C.3     1  UNL1        0.0575
     23 N          19.7155   38.1264   30.5815 N.am    1  UNL1       -0.2786
     24 C          20.7009   38.8204   29.9785 C.2     1  UNL1        0.2665
     25 O          20.8329   40.0053   30.2025 O.2     1  UNL1       -0.2709
     26 H          19.6329   37.1569   30.4309 H       1  UNL1        0.1551
     27 C          18.8445   40.6983   34.6812 C.3     1  UNL1        0.0320
     28 C          18.3579   40.0398   33.4160 C.ar    1  UNL1       -0.0098
     29 C          19.2533   39.3857   32.5905 C.ar    1  UNL1        0.0143
     30 C          18.8080   38.7847   31.4228 C.ar    1  UNL1        0.0846
     31 C          17.4556   38.8317   31.0907 C.ar    1  UNL1        0.1529
     32 C          16.5631   39.4836   31.9255 C.ar    1  UNL1        0.0492
     33 C          17.0151   40.0865   33.0861 C.ar    1  UNL1        0.0568
     34 CL         15.8945   40.9029   34.1309 Cl      1  UNL1       -0.0825
     35 O          17.0132   38.2395   29.9495 O.3     1  UNL1       -0.4702
     36 C          15.6697   38.5202   29.5518 C.3     1  UNL1        0.2525
@<TRIPOS>BOND
     1    27    28    1
     2    28    33   ar
     3    28    29   ar
     4    29    30   ar
     5    30    31   ar
     6    30    23    1
     7    31    32   ar
     8    31    35    1
     9    32    33   ar
    10    33    34    1
    11    35    36    1
    12    23    24   am
    13    24    25    2
    14    24    21    1
    15    21    22    1
    16    21    20    1
    17    20     1    1
    18     1     2    2
    19     1     3    1
    20     3     4    2
    21     3    18    1
    22     4     5    1
    23     5     9   ar
    24     5     6   ar
    25     6     7   ar
    26     7     8   ar
    27     7    11    1
    28     8     9   ar
    29     8    12    1
    30     9    10    1
    31    12    13    1
    32    13    17    1
    33    13    14    1
    34    14    15    1
    35    15    16    1
    36    16    17    1
    37    18    19    3
    38    23    26    1
@<TRIPOS>MOLECULE
ZINC17018025
 39 43 0 0 0
SMALL
GASTEIGER

@<TRIPOS>ATOM
      1 C          25.2236   42.3121   28.8957 C.3     1  UNL1        0.0500
      2 C          25.0294   41.7873   27.4965 C.ar    1  UNL1        0.0375
      3 C          25.7084   42.2038   26.4166 C.ar    1  UNL1        0.0142
      4 C          25.2059   41.4353   25.2741 C.ar    1  UNL1        0.0170
      5 C          25.5096   41.4129   23.9152 C.ar    1  UNL1        0.0060
      6 C          24.8267   40.5369   23.0769 C.ar    1  UNL1        0.0535
      7 C          23.8427   39.6869   23.6014 C.ar    1  UNL1        0.0060
      8 C          23.5435   39.7067   24.9312 C.ar    1  UNL1        0.0173
      9 C          24.2193   40.5720   25.7897 C.ar    1  UNL1        0.0597
     10 N          24.1339   40.8159   27.1392 N.ar    1  UNL1       -0.3292
     11 C          25.1382   40.5029   21.6341 C.2     1  UNL1        0.2459
     12 O          25.1080   41.5281   20.9813 O.2     1  UNL1       -0.2701
     13 N          25.4560   39.3353   21.0406 N.am    1  UNL1       -0.3005
     14 H          25.4804   38.5051   21.5692 H       1  UNL1        0.1497
     15 C          25.7652   39.3016   19.6091 C.3     1  UNL1        0.0940
     16 C          24.8791   38.2616   18.9203 C.3     1  UNL1        0.0429
     17 C          24.5624   38.7198   17.5200 C.2     1  UNL1       -0.0468
     18 C          24.4994   37.8237   16.5880 C.2     1  UNL1       -0.0346
     19 C          24.2044   38.1274   15.1482 C.3     1  UNL1        0.0254
     20 C          23.5851   39.5208   15.0196 C.3     1  UNL1        0.0050
     21 C          24.4550   40.5124   15.8024 C.3     1  UNL1        0.0047
     22 C          24.3337   40.1855   17.2940 C.3     1  UNL1        0.0218
     23 C          23.2230   40.1324   28.0608 C.3     1  UNL1        0.1233
     24 C          23.5200   38.6316   28.0521 C.3     1  UNL1        0.1021
     25 C          24.9236   38.3710   28.6383 C.3     1  UNL1        0.0212
     26 C          24.7214   37.0694   29.4584 C.3     1  UNL1        0.0207
     27 C          23.2836   37.2641   30.0012 C.3     1  UNL1        0.0959
     28 N          22.5527   37.9255   28.9049 N.3     1  UNL1       -0.1550
     29 S          20.9138   37.8799   28.6722 S.O2    1  UNL1        0.0633
     30 O          20.6245   38.8100   27.6376 O.2     1  UNL1       -0.1528
     31 O          20.5538   36.5080   28.5859 O.2     1  UNL1       -0.1528
     32 C          20.1619   38.5065   30.1374 C.ar    1  UNL1        0.1224
     33 C          20.9381   39.1188   31.1039 C.ar    1  UNL1        0.0230
     34 C          20.3501   39.6159   32.2509 C.ar    1  UNL1        0.0383
     35 C          18.9812   39.4902   32.4377 C.ar    1  UNL1        0.1388
     36 C          18.2054   38.8705   31.4689 C.ar    1  UNL1        0.0383
     37 C          18.7974   38.3801   30.3211 C.ar    1  UNL1        0.0230
     38 O          18.4011   39.9740   33.5675 O.3     1  UNL1       -0.4714
     39 C          19.1973   40.8286   34.3907 C.3     1  UNL1        0.2525
@<TRIPOS>BOND
     1     1     2    1
     2     2    10   ar
     3     2     3   ar
     4     3     4   ar
     5     4     9   ar
     6     4     5   ar
     7     5     6   ar
     8     6     7   ar
     9     6    11    1
    10     7     8   ar
    11     8     9   ar
    12     9    10   ar
    13    10    23    1
    14    23    24    1
    15    24    28    1
    16    24    25    1
    17    25    26    1
    18    26    27    1
    19    27    28    1
    20    28    29    1
    21    29    30    2
    22    29    31    2
    23    29    32    1
    24    32    37   ar
    25    32    33   ar
    26    33    34   ar
    27    34    35   ar
    28    35    36   ar
    29    35    38    1
    30    36    37   ar
    31    38    39    1
    32    11    12    2
    33    11    13   am
    34    13    15    1
    35    15    16    1
    36    16    17    1
    37    17    22    1
    38    17    18    2
    39    18    19    1
    40    19    20    1
    41    20    21    1
    42    21    22    1
    43    13    14    1
@<TRIPOS>MOLECULE
ZINC10664065
 32 34 0 0 0
SMALL
GASTEIGER

@<TRIPOS>ATOM
      1 C          11.1090   37.9880   25.4528 C.ar    1  UNL1        0.1898
      2 N          11.1769   37.4123   26.6664 N.ar    1  UNL1       -0.1912
      3 C          12.4327   37.5063   27.0319 C.ar    1  UNL1        0.2810
      4 O          13.0784   38.1353   26.0451 O.2     1  UNL1       -0.3334
      5 N          12.3032   38.4021   25.1511 N.ar    1  UNL1       -0.0600
      6 C           9.8735   38.1322   24.6019 C.3     1  UNL1        0.1543
      7 N          10.5948   40.3182   23.6965 N.am    1  UNL1       -0.2812
      8 C          10.1603   39.0657   23.4541 C.2     1  UNL1        0.2340
      9 O          10.0000   38.6898   22.3121 O.2     1  UNL1       -0.2743
     10 H          10.7878   40.6023   24.6191 H       1  UNL1        0.1550
     11 C          10.0209   42.3878   22.5794 C.ar    1  UNL1        0.1520
     12 C          10.2043   43.2747   21.5308 C.ar    1  UNL1        0.0382
     13 C          11.1313   42.9961   20.5437 C.ar    1  UNL1        0.0032
     14 C          11.8772   41.8331   20.5988 C.ar    1  UNL1        0.0015
     15 C          11.6999   40.9431   21.6410 C.ar    1  UNL1        0.0178
     16 C          10.7720   41.2160   22.6354 C.ar    1  UNL1        0.0848
     17 C           7.9835   43.4575   23.1797 C.3     1  UNL1        0.2525
     18 O           9.1101   42.6608   23.5515 O.3     1  UNL1       -0.4702
     19 C          13.0323   37.0061   28.3208 C.3     1  UNL1        0.2956
     20 O          13.5702   38.1077   29.0550 O.3     1  UNL1       -0.4350
     21 C          14.8256   37.9723   29.5306 C.2     1  UNL1        0.3419
     22 O          15.6195   37.2522   28.9554 O.2     1  UNL1       -0.2449
     23 C          15.2314   38.6908   30.7367 C.2     1  UNL1        0.0820
     24 C          16.5345   38.9743   30.9471 C.2     1  UNL1        0.0089
     25 C          16.9429   39.6972   32.1607 C.ar    1  UNL1        0.0282
     26 C          18.0587   39.2729   32.8904 C.ar    1  UNL1        0.0089
     27 C          18.4356   39.9564   34.0271 C.ar    1  UNL1        0.0347
     28 C          17.7131   41.0612   34.4485 C.ar    1  UNL1        0.0090
     29 C          16.6092   41.4888   33.7341 C.ar    1  UNL1        0.0301
     30 C          16.2204   40.8182   32.5896 C.ar    1  UNL1        0.1401
     31 F          15.1447   41.2399   31.8894 F       1  UNL1       -0.2042
     32 BR         19.9431   39.3837   35.0147 Br      1  UNL1       -0.0490
@<TRIPOS>BOND
     1    17    18    1
     2    18    11    1
     3    11    16   ar
     4    11    12   ar
     5    12    13   ar
     6    13    14   ar
     7    14    15   ar
     8    15    16   ar
     9    16     7    1
    10     7     8   am
    11     8     9    2
    12     8     6    1
    13     6     1    1
    14     1     5   ar
    15     1     2   ar
    16     2     3   ar
    17     3     4   ar
    18     3    19    1
    19     4     5   ar
    20    19    20    1
    21    20    21    1
    22    21    22    2
    23    21    23    1
    24    23    24    2
    25    24    25    1
    26    25    30   ar
    27    25    26   ar
    28    26    27   ar
    29    27    28   ar
    30    27    32    1
    31    28    29   ar
    32    29    30   ar
    33    30    31    1
    34     7    10    1
@<TRIPOS>MOLECULE
ZINC30726847
 37 40 0 0 0
SMALL
GASTEIGER

@<TRIPOS>ATOM
      1 C          24.3854   38.0687   29.5350 C.2     1  UNL1        0.3417
      2 O          24.7963   39.2049   29.4098 O.2     1  UNL1       -0.2449
      3 C          25.3367   36.9588   29.7514 C.ar    1  UNL1        0.0818
      4 C          25.6065   36.4860   31.0301 C.ar    1  UNL1        0.0288
      5 C          26.5143   35.4317   31.1927 C.ar    1  UNL1        0.1176
      6 N          27.1206   34.8771   30.1529 N.ar    1  UNL1       -0.2238
      7 C          26.9002   35.2885   28.9138 C.ar    1  UNL1        0.1611
      8 C          25.9963   36.3410   28.6622 C.ar    1  UNL1        0.0626
      9 C          25.9706   36.5417   27.2666 C.ar    1  UNL1        0.1234
     10 N          26.7805   35.6873   26.7086 N.ar    1  UNL1       -0.1664
     11 N          27.3843   34.8954   27.6925 N.ar    1  UNL1       -0.2360
     12 C          26.8019   34.9284   32.5498 C.ar    1  UNL1        0.1630
     13 C          26.2929   35.4245   33.7104 C.ar    1  UNL1        0.0423
     14 C          26.8298   34.6465   34.7538 C.ar    1  UNL1        0.0438
     15 C          27.6381   33.7282   34.1866 C.ar    1  UNL1        0.1797
     16 O          27.6187   33.9014   32.8557 O.2     1  UNL1       -0.4489
     17 C          28.3539   33.8227   27.4571 C.3     1  UNL1        0.1069
     18 C          27.6241   32.4794   27.3981 C.3     1  UNL1        0.0264
     19 C          29.0757   34.0697   26.1307 C.3     1  UNL1        0.0264
     20 O          23.0626   37.8204   29.4768 O.3     1  UNL1       -0.4397
     21 C          22.2286   38.8333   28.8550 C.3     1  UNL1        0.2444
     22 N          20.7557   38.5437   30.8210 N.am    1  UNL1       -0.2786
     23 C          21.2406   39.3593   29.8640 C.2     1  UNL1        0.2665
     24 O          20.8818   40.5170   29.8148 O.2     1  UNL1       -0.2709
     25 H          20.9956   37.5888   30.8219 H       1  UNL1        0.1551
     26 C          20.1967   40.8315   35.1375 C.3     1  UNL1        0.0311
     27 C          19.6115   40.1682   33.9174 C.ar    1  UNL1       -0.0204
     28 C          18.2394   40.0648   33.7799 C.ar    1  UNL1       -0.0011
     29 C          17.6968   39.4578   32.6627 C.ar    1  UNL1        0.0379
     30 C          18.5280   38.9508   31.6769 C.ar    1  UNL1        0.1520
     31 C          19.9102   39.0546   31.8148 C.ar    1  UNL1        0.0845
     32 C          20.4475   39.6599   32.9415 C.ar    1  UNL1        0.0135
     33 O          17.9957   38.3530   30.5777 O.3     1  UNL1       -0.4702
     34 C          16.6463   38.6872   30.2468 C.3     1  UNL1        0.2525
     35 C          21.4737   38.2183   27.6748 C.3     1  UNL1        0.0493
     36 C          21.0228   36.8026   28.0398 C.3     1  UNL1        0.0042
     37 C          22.3945   38.1615   26.4542 C.3     1  UNL1        0.0042
@<TRIPOS>BOND
     1    26    27    1
     2    27    32   ar
     3    27    28   ar
     4    28    29   ar
     5    29    30   ar
     6    30    31   ar
     7    30    33    1
     8    31    32   ar
     9    31    22    1
    10    22    23   am
    11    23    24    2
    12    23    21    1
    13    21    35    1
    14    21    20    1
    15    35    36    1
    16    35    37    1
    17    20     1    1
    18     1     2    2
    19     1     3    1
    20     3     8   ar
    21     3     4   ar
    22     4     5   ar
    23     5     6   ar
    24     5    12    1
    25     6     7   ar
    26     7    11   ar
    27     7     8   ar
    28     8     9   ar
    29     9    10   ar
    30    10    11   ar
    31    11    17    1
    32    17    18    1
    33    17    19    1
    34    12    16   ar
    35    12    13   ar
    36    13    14   ar
    37    14    15   ar
    38    15    16   ar
    39    33    34    1
    40    22    25    1
@<TRIPOS>MOLECULE
ZINC22375046
 35 38 0 0 0
SMALL
GASTEIGER

@<TRIPOS>ATOM
      1 C          16.5577   38.7291   30.6280 C.3     1  UNL1        0.2548
      2 C          20.1259   38.6046   29.7281 C.ar    1  UNL1        0.1725
      3 N          18.8097   38.6237   29.6486 N.ar    1  UNL1       -0.2241
      4 C          18.0610   38.7076   30.7305 C.ar    1  UNL1        0.1112
      5 C          18.6750   38.7796   31.9370 C.ar    1  UNL1        0.0566
      6 S          20.3903   38.7106   31.4411 S.2     1  UNL1       -0.0505
      7 N          21.0625   38.5212   28.7025 N.am    1  UNL1       -0.2172
      8 C          20.9837   37.5258   27.7972 C.2     1  UNL1        0.2350
      9 O          20.0964   36.7028   27.8765 O.2     1  UNL1       -0.2741
     10 C          21.9981   37.4356   26.6864 C.3     1  UNL1        0.0956
     11 C          25.2135   42.3724   28.3316 C.3     1  UNL1        0.0310
     12 C          24.1111   41.3496   28.4301 C.ar    1  UNL1       -0.0221
     13 C          22.8230   41.6852   28.0550 C.ar    1  UNL1       -0.0030
     14 C          21.8116   40.7486   28.1391 C.ar    1  UNL1        0.0147
     15 C          22.0872   39.4717   28.6109 C.ar    1  UNL1        0.0559
     16 C          23.3814   39.1378   28.9863 C.ar    1  UNL1       -0.0081
     17 C          24.3898   40.0776   28.8948 C.ar    1  UNL1       -0.0073
     18 C          23.6859   37.7518   29.4934 C.3     1  UNL1        0.0323
     19 O          16.1572   38.3079   29.2974 O.3     1  UNL1       -0.4377
     20 C          15.2379   37.3251   29.2172 C.2     1  UNL1        0.3601
     21 O          15.5928   36.1701   29.0831 O.2     1  UNL1       -0.2432
     22 C          13.8061   37.6500   29.2919 C.ar    1  UNL1        0.1651
     23 C          13.2240   37.9625   30.4956 C.ar    1  UNL1        0.0638
     24 S          11.5359   38.2535   29.9842 S.2     1  UNL1       -0.0510
     25 C          11.7672   37.9347   28.2412 C.ar    1  UNL1        0.1603
     26 N          13.0503   37.6401   28.1908 N.ar    1  UNL1       -0.2177
     27 N          10.8399   37.9799   27.2140 N.pl3   1  UNL1       -0.3092
     28 H          10.0561   38.5715   27.2841 H       1  UNL1        0.1490
     29 C          11.0251   37.1473   26.0229 C.3     1  UNL1        0.1157
     30 C          10.8966   38.0016   24.7881 C.ar    1  UNL1       -0.0026
     31 C          11.2634   39.3338   24.8279 C.ar    1  UNL1       -0.0026
     32 C          11.1451   40.1174   23.6953 C.ar    1  UNL1       -0.0003
     33 C          10.6600   39.5689   22.5229 C.ar    1  UNL1       -0.0000
     34 C          10.2937   38.2366   22.4829 C.ar    1  UNL1       -0.0003
     35 C          10.4115   37.4530   23.6156 C.ar    1  UNL1       -0.0026
@<TRIPOS>BOND
     1    11    12    1
     2    12    17   ar
     3    12    13   ar
     4    13    14   ar
     5    14    15   ar
     6    15    16   ar
     7    15     7    1
     8    16    17   ar
     9    16    18    1
    10     7     2    1
    11     7     8   am
    12     2     6   ar
    13     2     3   ar
    14     3     4   ar
    15     4     5   ar
    16     4     1    1
    17     5     6   ar
    18     1    19    1
    19    19    20    1
    20    20    21    2
    21    20    22    1
    22    22    26   ar
    23    22    23   ar
    24    23    24   ar
    25    24    25   ar
    26    25    26   ar
    27    25    27    1
    28    27    29    1
    29    29    30    1
    30    30    35   ar
    31    30    31   ar
    32    31    32   ar
    33    32    33   ar
    34    33    34   ar
    35    34    35   ar
    36     8     9    2
    37     8    10    1
    38    27    28    1
@<TRIPOS>MOLECULE
ZINC23463859
 34 36 0 0 0
SMALL
GASTEIGER

@<TRIPOS>ATOM
      1 N          12.0374   38.0170   27.3038 N.am    1  UNL1       -0.3022
      2 C          11.9130   37.9092   28.6415 C.2     1  UNL1        0.2223
      3 O          10.8120   37.9078   29.1501 O.2     1  UNL1       -0.2751
      4 H          12.9312   38.0181   26.8909 H       1  UNL1        0.1497
      5 C          13.1422   37.7901   29.5053 C.3     1  UNL1        0.0794
      6 C          12.7685   38.0630   30.9641 C.3     1  UNL1        0.0283
      7 C          14.0131   37.9072   31.8436 C.3     1  UNL1        0.0963
      8 N          15.0744   38.7776   31.3195 N.3     1  UNL1       -0.1554
      9 C          15.4494   38.6605   29.9038 C.3     1  UNL1        0.0963
     10 C          14.1887   38.8079   29.0461 C.3     1  UNL1        0.0283
     11 S          15.8340   39.8694   32.3060 S.O2    1  UNL1        0.0656
     12 O          15.5944   41.1549   31.7498 O.2     1  UNL1       -0.1527
     13 O          15.4690   39.5357   33.6383 O.2     1  UNL1       -0.1527
     14 C          17.5663   39.5769   32.1704 C.ar    1  UNL1        0.1505
     15 C          18.0593   38.7186   31.2000 C.ar    1  UNL1        0.0239
     16 C          19.4296   38.5184   31.1301 C.ar    1  UNL1        0.0221
     17 C          20.2534   39.1761   32.0237 C.ar    1  UNL1        0.0999
     18 N          19.7504   39.9861   32.9349 N.ar    1  UNL1       -0.2311
     19 C          18.4522   40.2052   33.0274 C.ar    1  UNL1        0.1568
     20 CL         17.8489   41.2882   34.2427 Cl      1  UNL1       -0.0599
     21 C          10.8424   38.1327   26.4641 C.3     1  UNL1        0.0940
     22 C          11.2891   41.4439   23.8026 C.ar    1  UNL1       -0.0222
     23 C          12.0735   40.3171   23.6417 C.ar    1  UNL1       -0.0045
     24 C          11.9317   39.2472   24.5053 C.ar    1  UNL1       -0.0030
     25 C          10.9997   39.3006   25.5249 C.ar    1  UNL1       -0.0045
     26 C          10.2116   40.4254   25.6825 C.ar    1  UNL1       -0.0030
     27 C          10.3562   41.4969   24.8213 C.ar    1  UNL1       -0.0045
     28 C          11.4468   42.6121   22.8636 C.3     1  UNL1        0.0264
     29 C          10.1985   42.7342   21.9875 C.3     1  UNL1        0.0047
     30 C          11.7723   42.6118   20.0508 C.3     1  UNL1        0.0000
     31 C          10.5775   43.3611   20.6443 C.3     1  UNL1        0.0003
     32 C          10.6620   36.8474   25.6540 C.3     1  UNL1        0.0222
     33 C          11.1871   35.6581   26.4607 C.3     1  UNL1        0.0020
     34 C           9.1770   36.6410   25.3490 C.3     1  UNL1        0.0020
@<TRIPOS>BOND
     1    30    31    1
     2    31    29    1
     3    29    28    1
     4    28    22    1
     5    22    27   ar
     6    22    23   ar
     7    23    24   ar
     8    24    25   ar
     9    25    26   ar
    10    25    21    1
    11    26    27   ar
    12    21    32    1
    13    21     1    1
    14    32    33    1
    15    32    34    1
    16     1     2   am
    17     2     3    2
    18     2     5    1
    19     5    10    1
    20     5     6    1
    21     6     7    1
    22     7     8    1
    23     8     9    1
    24     8    11    1
    25     9    10    1
    26    11    12    2
    27    11    13    2
    28    11    14    1
    29    14    19   ar
    30    14    15   ar
    31    15    16   ar
    32    16    17   ar
    33    17    18   ar
    34    18    19   ar
    35    19    20    1
    36     1     4    1
@<TRIPOS>MOLECULE
ZINC09003103
 33 35 0 0 0
SMALL
GASTEIGER

@<TRIPOS>ATOM
      1 C          25.3951   37.4988   29.7604 C.ar    1  UNL1        0.1507
      2 C          26.1969   38.4775   29.1681 C.ar    1  UNL1        0.1123
      3 N          25.6533   39.3666   28.3525 N.ar    1  UNL1       -0.2206
      4 C          24.3593   39.3557   28.0789 C.ar    1  UNL1        0.1742
      5 N          23.5215   38.4309   28.6212 N.ar    1  UNL1       -0.2663
      6 C          24.0038   37.4953   29.4671 C.ar    1  UNL1        0.2705
      7 O          23.2643   36.6645   29.9641 O.2     1  UNL1       -0.2666
      8 C          25.9732   36.5030   30.6678 C.2     1  UNL1        0.3474
      9 O          26.3684   35.4391   30.2309 O.2     1  UNL1       -0.2447
     10 O          26.0667   36.7667   31.9871 O.3     1  UNL1       -0.4453
     11 C          25.9682   35.1537   33.8089 C.3     1  UNL1        0.0513
     12 C          25.1613   36.0509   32.8682 C.3     1  UNL1        0.2089
     13 C          22.0943   38.4539   28.2920 C.3     1  UNL1        0.1961
     14 C          21.3235   39.0534   29.4398 C.2     1  UNL1        0.2494
     15 O          21.1741   40.2552   29.5078 O.2     1  UNL1       -0.2727
     16 N          20.8002   38.2543   30.3906 N.am    1  UNL1       -0.2823
     17 H          20.9864   37.2877   30.3784 H       1  UNL1        0.1549
     18 C          19.9923   38.7986   31.3951 C.ar    1  UNL1        0.0520
     19 C          20.5711   39.3493   32.5309 C.ar    1  UNL1        0.0261
     20 C          19.7707   39.8860   33.5220 C.ar    1  UNL1        0.0597
     21 C          18.3940   39.8744   33.3832 C.ar    1  UNL1        0.0229
     22 C          17.8148   39.3262   32.2522 C.ar    1  UNL1        0.0597
     23 C          18.6106   38.7886   31.2581 C.ar    1  UNL1        0.0261
     24 CL         16.0871   39.3131   32.0822 Cl      1  UNL1       -0.0822
     25 CL         20.4933   40.5747   34.9422 Cl      1  UNL1       -0.0822
     26 S          23.7034   40.5706   26.9843 S.3     1  UNL1       -0.0724
     27 C          25.1609   41.6228   26.7726 C.3     1  UNL1        0.0913
     28 C          25.0647   42.8068   27.6999 C.ar    1  UNL1       -0.0109
     29 C          26.1718   43.6053   27.9183 C.ar    1  UNL1       -0.0034
     30 C          26.0822   44.6945   28.7648 C.ar    1  UNL1       -0.0003
     31 C          24.8885   44.9787   29.4014 C.ar    1  UNL1       -0.0000
     32 C          23.7830   44.1769   29.1874 C.ar    1  UNL1       -0.0003
     33 C          23.8710   43.0911   28.3365 C.ar    1  UNL1       -0.0034
@<TRIPOS>BOND
     1    11    12    1
     2    12    10    1
     3    10     8    1
     4     8     9    2
     5     8     1    1
     6     1     6   ar
     7     1     2   ar
     8     2     3   ar
     9     3     4   ar
    10     4     5   ar
    11     4    26    1
    12     5     6   ar
    13     5    13    1
    14     6     7    2
    15    13    14    1
    16    14    15    2
    17    14    16   am
    18    16    18    1
    19    18    23   ar
    20    18    19   ar
    21    19    20   ar
    22    20    21   ar
    23    20    25    1
    24    21    22   ar
    25    22    23   ar
    26    22    24    1
    27    26    27    1
    28    27    28    1
    29    28    33   ar
    30    28    29   ar
    31    29    30   ar
    32    30    31   ar
    33    31    32   ar
    34    32    33   ar
    35    16    17    1
@<TRIPOS>MOLECULE
ZINC14953556
 37 40 0 0 0
SMALL
GASTEIGER

@<TRIPOS>ATOM
      1 C          26.5913   34.6081   33.0477 C.ar    1  UNL1        0.1724
      2 C          25.8390   35.7176   33.4092 C.ar    1  UNL1        0.0402
      3 C          25.1834   36.4529   32.4458 C.ar    1  UNL1        0.0078
      4 C          25.2660   36.0765   31.1030 C.ar    1  UNL1        0.0566
      5 C          26.0231   34.9598   30.7389 C.ar    1  UNL1        0.0445
      6 C          26.6823   34.2300   31.7091 C.ar    1  UNL1        0.1724
      7 C          24.5600   36.8601   30.0704 C.2     1  UNL1        0.2459
      8 O          25.1212   37.1371   29.0280 O.2     1  UNL1       -0.2701
      9 N          23.2934   37.2685   30.2831 N.am    1  UNL1       -0.3009
     10 H          22.8391   37.0442   31.1272 H       1  UNL1        0.1497
     11 C          22.5927   38.0461   29.2582 C.3     1  UNL1        0.0898
     12 C          21.4228   38.7963   29.8982 C.3     1  UNL1        0.0230
     13 C          20.1086   38.0975   29.5384 C.3     1  UNL1        0.0232
     14 C          18.9483   38.8161   30.2307 C.3     1  UNL1        0.0922
     15 N          19.1539   38.7925   31.6845 N.pl3   1  UNL1       -0.2931
     16 C          20.3860   39.4989   32.0581 C.3     1  UNL1        0.0922
     17 C          21.5892   38.8007   31.4204 C.3     1  UNL1        0.0232
     18 C          18.0585   39.3191   32.3494 C.ar    1  UNL1        0.1357
     19 C          18.2344   40.1839   33.4319 C.ar    1  UNL1        0.0551
     20 C          17.1115   40.6869   34.0586 C.ar    1  UNL1        0.1043
     21 N          15.9119   40.3321   33.6199 N.ar    1  UNL1       -0.2151
     22 C          15.7785   39.5092   32.5980 C.ar    1  UNL1        0.2250
     23 N          16.8234   39.0049   31.9706 N.ar    1  UNL1       -0.2018
     24 CL         14.1840   39.0774   32.0643 Cl      1  UNL1       -0.0410
     25 C          27.0842   34.3184   35.3545 C.3     1  UNL1        0.2526
     26 O          27.2403   33.8899   34.0002 O.3     1  UNL1       -0.4684
     27 O          27.4196   33.1424   31.3582 O.3     1  UNL1       -0.4720
     28 C          27.0436   32.4633   30.1584 C.3     1  UNL1        0.2102
     29 C          28.2269   32.4484   29.1886 C.3     1  UNL1        0.0745
     30 C          27.7156   32.4869   27.7715 C.ar    1  UNL1       -0.0078
     31 C          27.6250   33.6929   27.1020 C.ar    1  UNL1       -0.0024
     32 C          27.1566   33.7290   25.8023 C.ar    1  UNL1        0.0111
     33 C          26.7779   32.5576   25.1704 C.ar    1  UNL1        0.0585
     34 C          26.8682   31.3507   25.8397 C.ar    1  UNL1        0.0225
     35 C          27.3421   31.3146   27.1390 C.ar    1  UNL1        0.0547
     36 CL         27.4621   29.7994   27.9777 Cl      1  UNL1       -0.0825
     37 CL         26.1889   32.6032   23.5380 Cl      1  UNL1       -0.0822
@<TRIPOS>BOND
     1    25    26    1
     2    26     1    1
     3     1     6   ar
     4     1     2   ar
     5     2     3   ar
     6     3     4   ar
     7     4     5   ar
     8     4     7    1
     9     5     6   ar
    10     6    27    1
    11    27    28    1
    12    28    29    1
    13    29    30    1
    14    30    35   ar
    15    30    31   ar
    16    31    32   ar
    17    32    33   ar
    18    33    34   ar
    19    33    37    1
    20    34    35   ar
    21    35    36    1
    22     7     8    2
    23     7     9   am
    24     9    11    1
    25    11    12    1
    26    12    17    1
    27    12    13    1
    28    13    14    1
    29    14    15    1
    30    15    16    1
    31    15    18    1
    32    16    17    1
    33    18    23   ar
    34    18    19   ar
    35    19    20   ar
    36    20    21   ar
    37    21    22   ar
    38    22    23   ar
    39    22    24    1
    40     9    10    1
@<TRIPOS>MOLECULE
ZINC03224821
 39 43 0 0 0
SMALL
GASTEIGER

@<TRIPOS>ATOM
      1 C          18.5458   38.8422   30.7992 C.ar    1  UNL1        0.0786
      2 C          17.1745   38.7949   30.5905 C.ar    1  UNL1        0.0256
      3 C          16.3053   39.0978   31.6506 C.ar    1  UNL1        0.0815
      4 N          16.7447   39.4340   32.8463 N.ar    1  UNL1       -0.2454
      5 C          18.0447   39.4990   33.1360 C.ar    1  UNL1        0.0815
      6 C          19.0094   39.2123   32.1370 C.ar    1  UNL1        0.0239
      7 C          20.3721   39.2876   32.4437 C.ar    1  UNL1        0.0017
      8 C          20.7609   39.6361   33.7033 C.ar    1  UNL1        0.0001
      9 C          19.8179   39.9189   34.6892 C.ar    1  UNL1        0.0015
     10 C          18.4844   39.8555   34.4247 C.ar    1  UNL1        0.0191
     11 C          14.8451   39.0437   31.4152 C.ar    1  UNL1        0.0177
     12 C          13.9726   39.6798   32.2819 C.ar    1  UNL1        0.0015
     13 C          12.6003   39.6336   32.0670 C.ar    1  UNL1        0.0000
     14 C          12.0756   38.9646   31.0023 C.ar    1  UNL1        0.0000
     15 C          12.9246   38.3052   30.0970 C.ar    1  UNL1        0.0000
     16 C          14.3257   38.3419   30.3009 C.ar    1  UNL1        0.0014
     17 C          15.1714   37.6828   29.3974 C.ar    1  UNL1        0.0000
     18 C          14.6366   37.0122   28.3391 C.ar    1  UNL1        0.0000
     19 C          13.2592   36.9800   28.1337 C.ar    1  UNL1        0.0000
     20 C          12.4084   37.6081   28.9907 C.ar    1  UNL1        0.0000
     21 C          19.4996   38.5320   29.7138 C.2     1  UNL1        0.3418
     22 O          19.6777   39.3297   28.8153 O.2     1  UNL1       -0.2449
     23 O          20.1717   37.3644   29.7209 O.3     1  UNL1       -0.4353
     24 C          21.0444   37.0992   28.5911 C.3     1  UNL1        0.2927
     25 N          23.2189   38.0829   27.9409 N.am    1  UNL1       -0.2974
     26 C          22.4397   37.5687   28.9131 C.2     1  UNL1        0.2674
     27 O          22.8616   37.4837   30.0470 O.2     1  UNL1       -0.2711
     28 H          22.8764   38.1518   27.0205 H       1  UNL1        0.1499
     29 C          24.5753   38.5392   28.2539 C.3     1  UNL1        0.1164
     30 C          24.5968   42.7995   28.6236 C.ar    1  UNL1        0.0756
     31 C          25.6745   42.0490   29.0977 C.ar    1  UNL1        0.0062
     32 C          25.6611   40.6750   28.9753 C.ar    1  UNL1       -0.0024
     33 C          24.5827   40.0406   28.3844 C.ar    1  UNL1       -0.0026
     34 C          23.5138   40.7786   27.9077 C.ar    1  UNL1       -0.0024
     35 C          23.5120   42.1528   28.0284 C.ar    1  UNL1        0.0062
     36 C          24.6040   44.2712   28.7516 C.2     1  UNL1        0.3413
     37 O          24.8420   44.7862   29.8258 O.2     1  UNL1       -0.2449
     38 C          24.6628   46.4549   27.7888 C.3     1  UNL1        0.2560
     39 O          24.3468   45.0421   27.6773 O.3     1  UNL1       -0.4413
@<TRIPOS>BOND
     1    38    39    1
     2    39    36    1
     3    36    37    2
     4    36    30    1
     5    30    35   ar
     6    30    31   ar
     7    31    32   ar
     8    32    33   ar
     9    33    34   ar
    10    33    29    1
    11    34    35   ar
    12    29    25    1
    13    25    26   am
    14    26    27    2
    15    26    24    1
    16    24    23    1
    17    23    21    1
    18    21    22    2
    19    21     1    1
    20     1     6   ar
    21     1     2   ar
    22     2     3   ar
    23     3     4   ar
    24     3    11    1
    25     4     5   ar
    26     5    10   ar
    27     5     6   ar
    28     6     7   ar
    29     7     8   ar
    30     8     9   ar
    31     9    10   ar
    32    11    16   ar
    33    11    12   ar
    34    12    13   ar
    35    13    14   ar
    36    14    15   ar
    37    15    20   ar
    38    15    16   ar
    39    16    17   ar
    40    17    18   ar
    41    18    19   ar
    42    19    20   ar
    43    25    28    1
@<TRIPOS>MOLECULE
ZINC10581781
 32 36 0 0 0
SMALL
GASTEIGER

@<TRIPOS>ATOM
      1 N          23.7313   53.1698   25.8335 N.ar    1  UNL1       -0.3041
      2 C          23.4679   53.2473   27.1525 C.ar    1  UNL1        0.1801
      3 N          22.4010   52.5427   27.4318 N.ar    1  UNL1       -0.2063
      4 C          21.9261   51.9798   26.3178 C.ar    1  UNL1        0.1696
      5 C          22.7593   52.3641   25.2748 C.ar    1  UNL1        0.1527
      6 C          22.4832   51.9049   23.9688 C.ar    1  UNL1        0.2835
      7 O          23.1988   52.2284   23.0378 O.2     1  UNL1       -0.2651
      8 N          21.4169   51.1038   23.7640 N.ar    1  UNL1       -0.2402
      9 C          20.6160   50.7438   24.7817 C.ar    1  UNL1        0.3353
     10 O          19.6614   50.0243   24.5586 O.2     1  UNL1       -0.2461
     11 N          20.8470   51.1554   26.0426 N.ar    1  UNL1       -0.2648
     12 C          24.8391   53.8170   25.1265 C.3     1  UNL1        0.1078
     13 C          26.1422   53.0761   25.4332 C.3     1  UNL1        0.0245
     14 C          27.3989   53.1377   27.5917 C.3     1  UNL1        0.0001
     15 C          27.0167   53.9386   26.3453 C.3     1  UNL1        0.0020
     16 C          19.9527   50.7359   27.1244 C.3     1  UNL1        0.1120
     17 C          20.6294   49.6392   27.9492 C.3     1  UNL1        0.0247
     18 C          19.8556   49.4303   29.2525 C.3     1  UNL1        0.0020
     19 C          18.8147   50.5405   29.4112 C.3     1  UNL1        0.0001
     20 C          21.1243   50.6241   22.4111 C.3     1  UNL1        0.1779
     21 C          20.3276   51.6667   21.6697 C.2     1  UNL1        0.1728
     22 O          19.6781   52.4792   22.2830 O.2     1  UNL1       -0.2940
     23 C          20.3416   51.6952   20.1631 C.3     1  UNL1        0.0535
     24 C          21.7885   51.6728   19.6660 C.3     1  UNL1        0.0070
     25 C          21.8026   51.7018   18.1364 C.3     1  UNL1        0.0004
     26 C          21.0588   50.4787   17.5961 C.3     1  UNL1        0.0000
     27 C          19.6120   50.5011   18.0932 C.3     1  UNL1        0.0004
     28 C          19.5978   50.4722   19.6230 C.3     1  UNL1        0.0070
     29 C          18.9232   51.7755   17.6009 C.3     1  UNL1        0.0000
     30 C          19.6671   52.9986   18.1411 C.3     1  UNL1        0.0004
     31 C          21.1139   52.9762   17.6440 C.3     1  UNL1        0.0000
     32 C          19.6528   52.9696   19.6707 C.3     1  UNL1        0.0070
@<TRIPOS>BOND
     1    14    15    1
     2    15    13    1
     3    13    12    1
     4    12     1    1
     5     1     5   ar
     6     1     2   ar
     7     2     3   ar
     8     3     4   ar
     9     4    11   ar
    10     4     5   ar
    11     5     6   ar
    12     6     7    2
    13     6     8   ar
    14     8     9   ar
    15     8    20    1
    16     9    10    2
    17     9    11   ar
    18    11    16    1
    19    16    17    1
    20    17    18    1
    21    18    19    1
    22    20    21    1
    23    21    22    2
    24    21    23    1
    25    23    28    1
    26    23    32    1
    27    23    24    1
    28    24    25    1
    29    25    31    1
    30    25    26    1
    31    26    27    1
    32    27    28    1
    33    27    29    1
    34    29    30    1
    35    30    31    1
    36    30    32    1
@<TRIPOS>MOLECULE
ZINC25734665
 31 33 0 0 0
SMALL
GASTEIGER

@<TRIPOS>ATOM
      1 C          20.7588   37.6147   28.3249 C.2     1  UNL1        0.3514
      2 O          20.4753   36.4633   28.0559 O.2     1  UNL1       -0.2441
      3 C          22.8804   38.7426   28.8894 C.2     1  UNL1        0.0180
      4 C          22.0662   38.1582   27.9381 C.2     1  UNL1        0.1439
      5 N          25.5160   40.9379   27.8359 N.ar    1  UNL1       -0.3340
      6 C          26.2331   39.7841   27.9733 C.ar    1  UNL1        0.0371
      7 C          25.4143   38.7999   28.3797 C.ar    1  UNL1        0.0139
      8 C          24.0756   39.3956   28.4952 C.ar    1  UNL1        0.0136
      9 C          24.2225   40.7268   28.1403 C.ar    1  UNL1        0.0371
     10 C          23.1248   41.7586   28.1024 C.3     1  UNL1        0.0500
     11 C          27.7103   39.6385   27.7128 C.3     1  UNL1        0.0500
     12 C          26.0751   42.2235   27.4109 C.3     1  UNL1        0.1054
     13 C          26.4983   43.0276   28.6418 C.3     1  UNL1        0.0245
     14 C          25.0492   44.6623   29.8544 C.3     1  UNL1        0.0001
     15 C          25.8661   44.4197   28.5838 C.3     1  UNL1        0.0020
     16 C          22.4981   38.0828   26.5749 C.1     1  UNL1        0.1070
     17 N          22.8407   38.0231   25.4934 N.1     1  UNL1       -0.1906
     18 O          19.8720   38.3924   28.9787 O.3     1  UNL1       -0.4383
     19 C          19.9084   38.3570   30.4298 C.3     1  UNL1        0.2544
     20 C          18.5364   38.6606   30.9742 C.ar    1  UNL1        0.1097
     21 C          18.3815   39.1464   32.2552 C.ar    1  UNL1        0.0810
     22 C          17.1033   39.4263   32.7396 C.ar    1  UNL1        0.2834
     23 O          16.9599   39.8607   33.8718 O.2     1  UNL1       -0.2650
     24 N          16.0126   39.2075   31.9477 N.ar    1  UNL1       -0.1705
     25 C          16.2565   38.7196   30.6932 C.ar    1  UNL1        0.1992
     26 N          17.4524   38.4594   30.2292 N.ar    1  UNL1       -0.2213
     27 S          14.6193   38.5813   30.0097 S.2     1  UNL1       -0.0321
     28 C          13.7208   39.1795   31.4322 C.ar    1  UNL1        0.1110
     29 N          14.6778   39.4262   32.2743 N.ar    1  UNL1       -0.1585
     30 C          12.2344   39.3535   31.6094 C.3     1  UNL1        0.0545
     31 C          11.4945   38.3321   30.7431 C.3     1  UNL1        0.0073
@<TRIPOS>BOND
     1    14    15    1
     2    15    13    1
     3    13    12    1
     4    12     5    1
     5     5     9   ar
     6     5     6   ar
     7     6     7   ar
     8     6    11    1
     9     7     8   ar
    10     8     9   ar
    11     8     3    1
    12     9    10    1
    13     3     4    2
    14     4    16    1
    15     4     1    1
    16    16    17    3
    17     1     2    2
    18     1    18    1
    19    18    19    1
    20    19    20    1
    21    20    26   ar
    22    20    21   ar
    23    21    22   ar
    24    22    23    2
    25    22    24   ar
    26    24    29   ar
    27    24    25   ar
    28    25    26   ar
    29    25    27   ar
    30    27    28   ar
    31    28    29   ar
    32    28    30    1
    33    30    31    1
@<TRIPOS>MOLECULE
ZINC31004590
 31 34 0 0 0
SMALL
GASTEIGER

@<TRIPOS>ATOM
      1 C          22.8053   38.4317   27.2242 C.3     1  UNL1        0.2540
      2 C          27.0402   40.7893   28.5922 C.3     1  UNL1        0.0313
      3 C          25.5517   40.7864   28.3564 C.ar    1  UNL1       -0.0129
      4 C          24.7812   41.9403   28.5779 C.ar    1  UNL1        0.0139
      5 C          25.3707   43.1351   29.0252 C.ar    1  UNL1        0.0012
      6 C          24.5934   44.2340   29.2288 C.ar    1  UNL1        0.0001
      7 C          23.2196   44.1892   29.0001 C.ar    1  UNL1        0.0015
      8 C          22.6160   43.0487   28.5661 C.ar    1  UNL1        0.0191
      9 C          23.3837   41.8930   28.3437 C.ar    1  UNL1        0.0807
     10 N          22.8110   40.7612   27.9168 N.ar    1  UNL1       -0.2458
     11 C          23.5082   39.6753   27.7044 C.ar    1  UNL1        0.1086
     12 C          24.8986   39.6413   27.9133 C.ar    1  UNL1        0.0888
     13 C          25.6586   38.4004   27.6638 C.2     1  UNL1        0.3423
     14 O          25.6529   37.5084   28.4885 O.2     1  UNL1       -0.2449
     15 O          26.3584   38.2572   26.5215 O.3     1  UNL1       -0.4413
     16 C          25.8283   38.9098   25.3376 C.3     1  UNL1        0.2560
     17 O          22.2904   37.6957   28.3651 O.3     1  UNL1       -0.4418
     18 C          20.9600   37.5317   28.4343 C.2     1  UNL1        0.3179
     19 O          20.4614   36.4863   28.0899 O.2     1  UNL1       -0.2501
     20 C          20.0881   38.6511   28.9416 C.3     1  UNL1        0.1194
     21 C          20.0519   38.6166   30.4708 C.3     1  UNL1        0.0997
     22 C          18.6335   38.8044   30.9442 C.ar    1  UNL1        0.2371
     23 N          17.5467   38.4573   30.3010 N.ar    1  UNL1       -0.1907
     24 C          16.5190   38.8173   31.1035 C.ar    1  UNL1        0.2038
     25 N          17.0383   39.3568   32.1768 N.ar    1  UNL1       -0.0560
     26 O          18.2488   39.3512   32.1016 O.2     1  UNL1       -0.3370
     27 C          15.0755   38.6342   30.8207 C.ar    1  UNL1        0.0461
     28 C          14.6516   37.9798   29.6658 C.ar    1  UNL1        0.0106
     29 C          13.3204   37.8432   29.4738 C.ar    1  UNL1        0.0356
     30 S          12.6441   38.6485   30.9139 S.2     1  UNL1       -0.0858
     31 C          14.1286   39.1074   31.6824 C.ar    1  UNL1        0.0386
@<TRIPOS>BOND
     1     2     3    1
     2     3    12   ar
     3     3     4   ar
     4     4     9   ar
     5     4     5   ar
     6     5     6   ar
     7     6     7   ar
     8     7     8   ar
     9     8     9   ar
    10     9    10   ar
    11    10    11   ar
    12    11    12   ar
    13    11     1    1
    14    12    13    1
    15    13    14    2
    16    13    15    1
    17    15    16    1
    18     1    17    1
    19    17    18    1
    20    18    19    2
    21    18    20    1
    22    20    21    1
    23    21    22    1
    24    22    26   ar
    25    22    23   ar
    26    23    24   ar
    27    24    25   ar
    28    24    27    1
    29    25    26   ar
    30    27    31   ar
    31    27    28   ar
    32    28    29   ar
    33    29    30   ar
    34    30    31   ar
@<TRIPOS>MOLECULE
ZINC23587853
 29 31 0 0 0
SMALL
GASTEIGER

@<TRIPOS>ATOM
      1 N          23.1714   38.7209   29.1676 N.ar    1  UNL1       -0.3065
      2 C          24.0664   39.7171   28.8127 C.ar    1  UNL1        0.0793
      3 C          25.4492   39.7841   28.7362 C.ar    1  UNL1        0.0201
      4 C          26.0589   40.9555   28.3364 C.ar    1  UNL1        0.0215
      5 C          25.2975   42.0680   28.0100 C.ar    1  UNL1        0.1238
      6 C          23.9234   42.0194   28.0806 C.ar    1  UNL1        0.0405
      7 C          23.2905   40.8406   28.4834 C.ar    1  UNL1        0.1005
      8 N          21.9881   40.4899   28.6476 N.ar    1  UNL1       -0.2211
      9 C          21.9149   39.2448   29.0497 C.ar    1  UNL1        0.1716
     10 S          26.0949   43.5546   27.5011 S.O2    1  UNL1        0.0633
     11 O          25.0649   44.4678   27.1486 O.2     1  UNL1       -0.1528
     12 O          27.0704   43.8515   28.4907 O.2     1  UNL1       -0.1528
     13 N          26.9226   43.2139   26.1078 N.3     1  UNL1       -0.1555
     14 C          26.2628   42.4810   25.0245 C.3     1  UNL1        0.0958
     15 C          27.0447   41.2004   24.7248 C.3     1  UNL1        0.0206
     16 C          28.3146   43.6456   25.9586 C.3     1  UNL1        0.0958
     17 C          28.3522   45.0305   25.3092 C.3     1  UNL1        0.0206
     18 C          23.5092   37.3596   29.5906 C.3     1  UNL1        0.1080
     19 C          23.9913   37.3815   31.0425 C.3     1  UNL1        0.0245
     20 C          25.0789   35.8863   32.7229 C.3     1  UNL1        0.0001
     21 C          25.0428   36.2891   31.2473 C.3     1  UNL1        0.0020
     22 S          20.4198   38.3763   29.3889 S.3     1  UNL1       -0.0707
     23 C          19.8449   39.2946   30.8387 C.3     1  UNL1        0.1120
     24 C          20.8058   39.0622   32.0094 C.3     1  UNL1        0.0187
     25 C          20.2393   39.7198   33.2695 C.3     1  UNL1        0.0018
     26 C          18.9153   39.0577   33.6547 C.3     1  UNL1        0.0078
     27 C          17.8860   39.2939   32.5445 C.3     1  UNL1        0.0654
     28 C          18.4693   38.8069   31.2364 C.2     1  UNL1        0.1606
     29 O          17.8524   38.0485   30.5276 O.2     1  UNL1       -0.2952
@<TRIPOS>BOND
     1    20    21    1
     2    21    19    1
     3    19    18    1
     4    18     1    1
     5     1     9   ar
     6     1     2   ar
     7     2     7   ar
     8     2     3   ar
     9     3     4   ar
    10     4     5   ar
    11     5     6   ar
    12     5    10    1
    13     6     7   ar
    14     7     8   ar
    15     8     9   ar
    16     9    22    1
    17    22    23    1
    18    23    28    1
    19    23    24    1
    20    24    25    1
    21    25    26    1
    22    26    27    1
    23    27    28    1
    24    28    29    2
    25    10    11    2
    26    10    12    2
    27    10    13    1
    28    13    14    1
    29    13    16    1
    30    14    15    1
    31    16    17    1
@<TRIPOS>MOLECULE
ZINC22724112
 32 35 0 0 0
SMALL
GASTEIGER

@<TRIPOS>ATOM
      1 C          21.2565   37.9008   29.5177 C.ar    1  UNL1        0.1140
      2 C          20.1139   38.4057   30.1052 C.ar    1  UNL1        0.1084
      3 N          20.4505   38.8871   31.3141 N.ar    1  UNL1       -0.2280
      4 N          21.8207   38.7099   31.5257 N.ar    1  UNL1       -0.1648
      5 C          22.3460   38.1221   30.4746 C.ar    1  UNL1        0.1090
      6 C          23.7698   37.7520   30.2908 C.ar    1  UNL1        0.0196
      7 C          24.1977   36.4557   30.5728 C.ar    1  UNL1        0.0016
      8 C          25.5232   36.1155   30.3944 C.ar    1  UNL1        0.0000
      9 C          26.4288   37.0610   29.9479 C.ar    1  UNL1        0.0000
     10 C          26.0108   38.3504   29.6714 C.ar    1  UNL1        0.0000
     11 C          24.6866   38.7006   29.8407 C.ar    1  UNL1        0.0016
     12 C          19.5641   39.4815   32.2216 C.ar    1  UNL1        0.0829
     13 C          18.2048   39.2073   32.1473 C.ar    1  UNL1        0.0191
     14 C          17.3340   39.7907   33.0467 C.ar    1  UNL1        0.0015
     15 C          17.8130   40.6560   34.0132 C.ar    1  UNL1        0.0001
     16 C          19.1654   40.9352   34.0864 C.ar    1  UNL1        0.0015
     17 C          20.0420   40.3505   33.1935 C.ar    1  UNL1        0.0191
     18 C          21.3618   37.2713   28.1920 C.2     1  UNL1        0.3446
     19 O          20.5057   36.4933   27.8190 O.2     1  UNL1       -0.2448
     20 O          22.4075   37.5573   27.3913 O.3     1  UNL1       -0.4403
     21 C          22.1079   37.8965   26.0117 C.3     1  UNL1        0.2379
     22 C          23.2411   38.7063   25.4360 C.2     1  UNL1        0.0571
     23 O          23.2020   39.0655   24.2837 O.2     1  UNL1       -0.3286
     24 C          24.4230   39.0677   26.2983 C.2     1  UNL1       -0.0999
     25 C          22.5517   42.9741   28.8014 C.3     1  UNL1        0.0525
     26 C          23.5182   42.3545   27.8251 C.ar    1  UNL1        0.0629
     27 C          24.4489   43.1129   27.1918 C.ar    1  UNL1        0.0485
     28 S          25.2673   41.8700   26.2025 S.2     1  UNL1       -0.1048
     29 C          24.3162   40.5113   26.7175 C.ar    1  UNL1       -0.0497
     30 N          23.4765   41.0652   27.5613 N.ar    1  UNL1       -0.2804
     31 C          25.6661   38.8689   25.5355 C.1     1  UNL1       -0.1066
     32 N          26.6255   38.7155   24.9468 N.1     1  UNL1       -0.2342
@<TRIPOS>UNITY_ATOM_ATTR
24 1
charge -1
@<TRIPOS>BOND
     1    25    26    1
     2    26    30   ar
     3    26    27   ar
     4    27    28   ar
     5    28    29   ar
     6    29    30   ar
     7    29    24    1
     8    24    31    1
     9    24    22    1
    10    31    32    3
    11    22    23    2
    12    22    21    1
    13    21    20    1
    14    20    18    1
    15    18    19    2
    16    18     1    1
    17     1     5   ar
    18     1     2   ar
    19     2     3   ar
    20     3     4   ar
    21     3    12    1
    22     4     5   ar
    23     5     6    1
    24     6    11   ar
    25     6     7   ar
    26     7     8   ar
    27     8     9   ar
    28     9    10   ar
    29    10    11   ar
    30    12    17   ar
    31    12    13   ar
    32    13    14   ar
    33    14    15   ar
    34    15    16   ar
    35    16    17   ar
@<TRIPOS>MOLECULE
ZINC22678961
 30 32 0 0 0
SMALL
GASTEIGER

@<TRIPOS>ATOM
      1 C          24.1123   41.9060   27.1309 C.ar    1  UNL1        0.0915
      2 C          23.5364   40.6280   27.5149 C.ar    1  UNL1       -0.0122
      3 C          22.4570   40.7029   28.3230 C.ar    1  UNL1        0.0047
      4 S          22.2005   42.4361   28.5767 S.2     1  UNL1       -0.0767
      5 C          23.5114   43.0552   27.6279 C.ar    1  UNL1        0.0864
      6 C          21.6610   39.5608   28.8751 C.3     1  UNL1        0.0327
      7 C          22.0226   38.2936   28.0868 C.3     1  UNL1        0.0052
      8 C          23.5476   38.1915   27.9897 C.3     1  UNL1        0.0050
      9 C          24.0836   39.2809   27.0592 C.3     1  UNL1        0.0268
     10 C          21.4683   37.0642   28.8097 C.3     1  UNL1        0.0004
     11 N          23.8717   44.3765   27.4148 N.am    1  UNL1       -0.2757
     12 C          24.5933   45.0362   28.3424 C.2     1  UNL1        0.2711
     13 O          24.9274   44.4737   29.3636 O.2     1  UNL1       -0.2707
     14 H          23.6004   44.8332   26.5859 H       1  UNL1        0.1554
     15 C          24.9849   46.4729   28.1109 C.3     1  UNL1        0.2927
     16 O          23.8326   47.2184   27.6371 O.3     1  UNL1       -0.4381
     17 C          24.0529   48.1440   26.6902 C.2     1  UNL1        0.3236
     18 O          24.4283   47.8076   25.5922 O.2     1  UNL1       -0.2497
     19 C          23.8322   49.6029   26.9968 C.3     1  UNL1        0.1556
     20 C          22.3551   49.9011   26.9837 C.ar    1  UNL1        0.0769
     21 C          21.7549   50.3923   25.8696 C.ar    1  UNL1        0.0518
     22 S          20.0682   50.5369   26.4422 S.2     1  UNL1       -0.0706
     23 C          20.3274   49.9472   28.0549 C.ar    1  UNL1        0.0883
     24 N          21.6143   49.6866   28.0507 N.ar    1  UNL1       -0.2464
     25 C          19.3298   49.7732   29.1709 C.3     1  UNL1        0.0594
     26 C          25.2855   41.9790   26.2576 C.2     1  UNL1        0.3426
     27 O          25.1738   42.4037   25.1233 O.2     1  UNL1       -0.2448
     28 O          26.4899   41.5753   26.7112 O.3     1  UNL1       -0.4454
     29 C          28.3814   43.1015   26.5584 C.3     1  UNL1        0.0513
     30 C          27.2732   42.5456   27.4550 C.3     1  UNL1        0.2089
@<TRIPOS>BOND
     1    29    30    1
     2    30    28    1
     3    28    26    1
     4    26    27    2
     5    26     1    1
     6     1     5   ar
     7     1     2   ar
     8     2     9    1
     9     2     3   ar
    10     3     4   ar
    11     3     6    1
    12     4     5   ar
    13     5    11    1
    14    11    12   am
    15    12    13    2
    16    12    15    1
    17    15    16    1
    18    16    17    1
    19    17    18    2
    20    17    19    1
    21    19    20    1
    22    20    24   ar
    23    20    21   ar
    24    21    22   ar
    25    22    23   ar
    26    23    24   ar
    27    23    25    1
    28     6     7    1
    29     7     8    1
    30     7    10    1
    31     8     9    1
    32    11    14    1
@<TRIPOS>MOLECULE
ZINC18826294
 32 35 0 0 0
SMALL
GASTEIGER

@<TRIPOS>ATOM
      1 O          12.2983   37.1788   29.0523 O.3     1  UNL1       -0.4385
      2 C          12.9053   37.9193   29.9931 C.2     1  UNL1        0.3446
      3 O          12.7728   37.6393   31.1610 O.2     1  UNL1       -0.2478
      4 C          13.7520   39.0999   29.5927 C.3     1  UNL1        0.2599
      5 C          16.8926   39.0196   31.1993 C.ar    1  UNL1        0.2058
      6 N          17.1014   38.1991   30.1601 N.ar    1  UNL1       -0.1077
      7 N          16.0028   38.1474   29.4862 N.ar    1  UNL1       -0.0445
      8 N          15.1259   38.8959   30.0586 N.ar    1  UNL1       -0.1393
      9 N          15.6477   39.4421   31.1027 N.ar    1  UNL1       -0.1292
     10 C          20.7015   40.4415   35.2795 C.3     1  UNL1        0.0310
     11 C          19.7049   40.0696   34.2119 C.ar    1  UNL1       -0.0218
     12 C          18.4082   40.5456   34.2837 C.ar    1  UNL1       -0.0042
     13 C          17.4916   40.2080   33.3085 C.ar    1  UNL1        0.0028
     14 C          17.8744   39.3864   32.2508 C.ar    1  UNL1        0.0393
     15 C          19.1802   38.9055   32.1862 C.ar    1  UNL1        0.0028
     16 C          20.0903   39.2531   33.1640 C.ar    1  UNL1       -0.0042
     17 C          12.5516   37.5352   27.6678 C.3     1  UNL1        0.2767
     18 C          11.4044   37.0665   26.8104 C.2     1  UNL1        0.2181
     19 O          10.8572   36.0110   27.0532 O.2     1  UNL1       -0.2873
     20 C          10.9498   37.8848   25.6841 C.ar    1  UNL1        0.0512
     21 C          10.9822   37.5268   24.2598 C.ar    1  UNL1        0.0168
     22 C          10.4619   38.5721   23.5950 C.ar    1  UNL1        0.0376
     23 N          10.1176   39.5448   24.4885 N.ar    1  UNL1       -0.3292
     24 C          10.4053   39.1539   25.7427 C.ar    1  UNL1        0.0403
     25 C          10.1686   39.9574   26.9955 C.3     1  UNL1        0.0501
     26 C          10.2856   38.6567   22.1008 C.3     1  UNL1        0.0500
     27 C           9.5190   40.8334   24.1315 C.3     1  UNL1        0.1385
     28 C          10.5177   41.6538   23.3566 C.ar    1  UNL1        0.0299
     29 C          11.7936   41.9757   23.6817 C.ar    1  UNL1        0.0046
     30 C          12.5346   42.7464   22.8055 C.ar    1  UNL1        0.0072
     31 C          11.9599   43.1663   21.6520 C.ar    1  UNL1        0.0352
     32 S          10.3247   42.4608   21.7758 S.2     1  UNL1       -0.0889
@<TRIPOS>BOND
     1    10    11    1
     2    11    16   ar
     3    11    12   ar
     4    12    13   ar
     5    13    14   ar
     6    14    15   ar
     7    14     5    1
     8    15    16   ar
     9     5     9   ar
    10     5     6   ar
    11     6     7   ar
    12     7     8   ar
    13     8     9   ar
    14     8     4    1
    15     4     2    1
    16     2     3    2
    17     2     1    1
    18     1    17    1
    19    17    18    1
    20    18    19    2
    21    18    20    1
    22    20    24   ar
    23    20    21   ar
    24    21    22   ar
    25    22    23   ar
    26    22    26    1
    27    23    24   ar
    28    23    27    1
    29    24    25    1
    30    27    28    1
    31    28    32   ar
    32    28    29   ar
    33    29    30   ar
    34    30    31   ar
    35    31    32   ar
@<TRIPOS>MOLECULE
ZINC22979323
 29 31 0 0 0
SMALL
GASTEIGER

@<TRIPOS>ATOM
      1 C          12.5232   37.3405   27.9878 C.ar    1  UNL1        0.1025
      2 C          12.5008   37.9915   29.1834 C.ar    1  UNL1       -0.0076
      3 C          13.7049   38.2965   29.8360 C.ar    1  UNL1        0.0245
      4 C          13.8897   38.9650   31.0785 C.ar    1  UNL1        0.0746
      5 C          15.1504   39.1612   31.5472 C.ar    1  UNL1        0.0235
      6 C          16.2601   38.7215   30.8115 C.ar    1  UNL1        0.0878
      7 N          16.0863   38.0973   29.6501 N.ar    1  UNL1       -0.2384
      8 C          14.8848   37.8843   29.1671 C.ar    1  UNL1        0.1105
      9 S          14.2674   37.1081   27.6928 S.2     1  UNL1       -0.0619
     10 C          11.1852   38.3840   29.8045 C.3     1  UNL1        0.0318
     11 C          17.6223   38.9465   31.3295 C.ar    1  UNL1        0.0471
     12 C          18.0133   39.4256   32.5538 C.ar    1  UNL1        0.0085
     13 C          19.3579   39.5469   32.8175 C.ar    1  UNL1        0.0075
     14 C          20.2554   39.1992   31.8576 C.ar    1  UNL1        0.0355
     15 S          19.1920   38.6662   30.5263 S.2     1  UNL1       -0.0849
     16 C          12.7001   39.4448   31.8695 C.3     1  UNL1        0.4187
     17 F          13.1414   40.1602   32.9877 F       1  UNL1       -0.1659
     18 F          11.9103   40.2747   31.0666 F       1  UNL1       -0.1659
     19 F          11.9441   38.3446   32.2883 F       1  UNL1       -0.1659
     20 C          11.3919   36.9307   27.1492 C.2     1  UNL1        0.3474
     21 O          10.9438   35.8041   27.2408 O.2     1  UNL1       -0.2443
     22 O          10.8487   37.8037   26.2762 O.3     1  UNL1       -0.4386
     23 C          10.1429   37.2440   25.1373 C.3     1  UNL1        0.2531
     24 C          10.7847   37.7266   23.8621 C.2     1  UNL1        0.1183
     25 O          11.2449   36.9274   23.0746 O.2     1  UNL1       -0.3125
     26 N          10.8471   39.0465   23.5967 N.am    1  UNL1       -0.5136
     27 O          12.0836   39.7301   23.6913 O.3     1  UNL1       -0.4487
     28 C          12.3965   41.3383   21.9148 C.3     1  UNL1        0.0331
     29 C          12.0039   41.1219   23.3776 C.3     1  UNL1        0.1235
@<TRIPOS>UNITY_ATOM_ATTR
26 1
charge -1
@<TRIPOS>BOND
     1    28    29    1
     2    29    27    1
     3    27    26    1
     4    26    24    1
     5    24    25    2
     6    24    23    1
     7    23    22    1
     8    22    20    1
     9    20    21    2
    10    20     1    1
    11     1     9   ar
    12     1     2   ar
    13     2     3   ar
    14     2    10    1
    15     3     8   ar
    16     3     4   ar
    17     4     5   ar
    18     4    16    1
    19     5     6   ar
    20     6     7   ar
    21     6    11    1
    22     7     8   ar
    23     8     9   ar
    24    11    15   ar
    25    11    12   ar
    26    12    13   ar
    27    13    14   ar
    28    14    15   ar
    29    16    17    1
    30    16    18    1
    31    16    19    1
@<TRIPOS>MOLECULE
ZINC22614087
 33 36 0 0 0
SMALL
GASTEIGER

@<TRIPOS>ATOM
      1 C          18.8949   38.5009   30.8252 C.2     1  UNL1        0.2185
      2 O          19.3579   37.4109   31.0947 O.2     1  UNL1       -0.2873
      3 C          17.6735   38.9124   31.4041 C.ar    1  UNL1        0.0556
      4 C          16.3251   38.7686   30.8240 C.ar    1  UNL1        0.0201
      5 C          15.8425   38.2291   29.6337 C.ar    1  UNL1        0.0016
      6 C          14.4893   38.2474   29.3752 C.ar    1  UNL1        0.0001
      7 C          13.6086   38.7926   30.2980 C.ar    1  UNL1        0.0015
      8 C          14.0720   39.3258   31.4810 C.ar    1  UNL1        0.0172
      9 C          15.4356   39.3207   31.7591 C.ar    1  UNL1        0.0600
     10 N          16.1735   39.7720   32.8355 N.ar    1  UNL1       -0.3251
     11 C          17.5001   39.5361   32.6376 C.ar    1  UNL1        0.0628
     12 C          15.6084   40.4154   34.0241 C.3     1  UNL1        0.1304
     13 C          18.5809   39.8849   33.5795 C.ar    1  UNL1        0.0159
     14 C          19.1647   38.8960   34.3754 C.ar    1  UNL1        0.0014
     15 C          20.1786   39.2285   35.2494 C.ar    1  UNL1        0.0000
     16 C          20.6100   40.5397   35.3474 C.ar    1  UNL1        0.0000
     17 C          20.0324   41.5253   34.5663 C.ar    1  UNL1        0.0000
     18 C          19.0217   41.2067   33.6838 C.ar    1  UNL1        0.0014
     19 C          19.6232   39.4146   29.8733 C.3     1  UNL1        0.2770
     20 O          19.7853   38.7494   28.5928 O.3     1  UNL1       -0.4358
     21 C          20.7780   37.8438   28.4955 C.2     1  UNL1        0.3613
     22 O          20.5399   36.7225   28.0936 O.2     1  UNL1       -0.2431
     23 N          23.9374   39.6033   28.5996 N.ar    1  UNL1       -0.2165
     24 C          24.6675   38.9503   29.5229 C.ar    1  UNL1        0.2765
     25 O          25.8008   39.3190   29.7825 O.2     1  UNL1       -0.2655
     26 C          24.1126   37.8348   30.1889 C.ar    1  UNL1        0.0640
     27 C          22.8424   37.4628   29.8623 C.ar    1  UNL1        0.0324
     28 C          22.1564   38.2147   28.8776 C.ar    1  UNL1        0.1764
     29 N          22.7440   39.2381   28.2986 N.ar    1  UNL1       -0.1602
     30 C          24.5228   40.7588   27.9152 C.3     1  UNL1        0.1307
     31 C          23.5856   41.9605   28.0507 C.3     1  UNL1        0.0265
     32 C          23.4127   44.3291   28.8272 C.3     1  UNL1        0.0001
     33 C          24.3038   43.0857   28.7987 C.3     1  UNL1        0.0021
@<TRIPOS>BOND
     1    32    33    1
     2    33    31    1
     3    31    30    1
     4    30    23    1
     5    23    29   ar
     6    23    24   ar
     7    24    25    2
     8    24    26   ar
     9    26    27   ar
    10    27    28   ar
    11    28    29   ar
    12    28    21    1
    13    21    22    2
    14    21    20    1
    15    20    19    1
    16    19     1    1
    17     1     2    2
    18     1     3    1
    19     3    11   ar
    20     3     4   ar
    21     4     9   ar
    22     4     5   ar
    23     5     6   ar
    24     6     7   ar
    25     7     8   ar
    26     8     9   ar
    27     9    10   ar
    28    10    11   ar
    29    10    12    1
    30    11    13    1
    31    13    18   ar
    32    13    14   ar
    33    14    15   ar
    34    15    16   ar
    35    16    17   ar
    36    17    18   ar
@<TRIPOS>MOLECULE
ZINC28096947
 30 33 0 0 0
SMALL
GASTEIGER

@<TRIPOS>ATOM
      1 C          19.5875   39.7616   33.1894 C.ar    1  UNL1        0.0725
      2 C          20.7391   39.5981   33.9623 C.ar    1  UNL1        0.0061
      3 C          20.8562   40.2578   35.1677 C.ar    1  UNL1        0.0002
      4 C          19.8358   41.0804   35.6120 C.ar    1  UNL1       -0.0003
      5 C          18.6944   41.2510   34.8490 C.ar    1  UNL1       -0.0032
      6 C          18.5619   40.5929   33.6435 C.ar    1  UNL1       -0.0047
      7 C          19.4553   39.0586   31.8970 C.2     1  UNL1        0.3413
      8 O          18.8046   38.0353   31.8260 O.2     1  UNL1       -0.2449
      9 O          20.0563   39.5522   30.7971 O.3     1  UNL1       -0.4387
     10 C          19.8921   38.8035   29.5639 C.3     1  UNL1        0.2547
     11 C          22.8567   40.3420   28.0257 C.ar    1  UNL1        0.0880
     12 N          21.8130   40.1274   28.7930 N.ar    1  UNL1       -0.2433
     13 C          21.0833   39.0383   28.6712 C.ar    1  UNL1        0.1094
     14 C          21.4268   38.1348   27.7181 C.ar    1  UNL1        0.0549
     15 S          22.8615   38.9323   27.0116 S.2     1  UNL1       -0.0705
     16 C          23.0407   42.7876   28.3921 C.3     1  UNL1        0.0073
     17 C          23.8038   41.5142   28.0218 C.3     1  UNL1        0.0526
     18 C          17.3157   40.7759   32.8162 C.3     1  UNL1        0.0916
     19 S          15.9442   39.8667   33.5797 S.3     1  UNL1       -0.0692
     20 C          15.0314   39.2416   32.2082 C.ar    1  UNL1        0.2118
     21 N          15.5445   38.9340   31.0189 N.ar    1  UNL1       -0.1834
     22 C          14.5821   38.4913   30.2166 C.ar    1  UNL1        0.2543
     23 N          14.5907   38.0660   28.9481 N.ar    1  UNL1       -0.2143
     24 C          13.4836   37.6661   28.3635 C.ar    1  UNL1        0.0637
     25 C          12.2700   37.6884   29.0598 C.ar    1  UNL1        0.0297
     26 C          12.2524   38.1178   30.3488 C.ar    1  UNL1        0.0652
     27 N          13.4145   38.5199   30.9260 N.ar    1  UNL1       -0.1986
     28 N          13.7346   39.0059   32.2005 N.ar    1  UNL1       -0.1367
     29 C          10.9621   38.1480   31.1268 C.3     1  UNL1        0.0523
     30 C          13.5205   37.1865   26.9353 C.3     1  UNL1        0.0522
@<TRIPOS>BOND
     1    16    17    1
     2    17    11    1
     3    11    15   ar
     4    11    12   ar
     5    12    13   ar
     6    13    14   ar
     7    13    10    1
     8    14    15   ar
     9    10     9    1
    10     9     7    1
    11     7     8    2
    12     7     1    1
    13     1     6   ar
    14     1     2   ar
    15     2     3   ar
    16     3     4   ar
    17     4     5   ar
    18     5     6   ar
    19     6    18    1
    20    18    19    1
    21    19    20    1
    22    20    28   ar
    23    20    21   ar
    24    21    22   ar
    25    22    27   ar
    26    22    23   ar
    27    23    24   ar
    28    24    25   ar
    29    24    30    1
    30    25    26   ar
    31    26    27   ar
    32    26    29    1
    33    27    28   ar
@<TRIPOS>MOLECULE
ZINC24417867
 32 34 0 0 0
SMALL
GASTEIGER

@<TRIPOS>ATOM
      1 C          24.5159   40.2019   27.5502 C.3     1  UNL1        0.1737
      2 C          24.2156   41.6935   27.3898 C.3     1  UNL1        0.0269
      3 C          24.6870   42.4455   28.6361 C.3     1  UNL1        0.0020
      4 C          24.9505   42.2322   26.1608 C.3     1  UNL1        0.0020
      5 N          25.5529   40.0192   28.5688 N.3     1  UNL1       -0.1700
      6 H          25.9331   40.9439   28.7710 H       1  UNL1        0.1494
      7 S          26.8439   39.0268   28.2676 S.O2    1  UNL1        0.0607
      8 O          26.7671   38.6656   26.8955 O.2     1  UNL1       -0.1530
      9 O          27.9849   39.6643   28.8249 O.2     1  UNL1       -0.1530
     10 C          25.9784   33.9640   31.4341 C.3     1  UNL1        0.0307
     11 C          26.1945   35.2285   30.6431 C.ar    1  UNL1       -0.0257
     12 C          26.9607   35.2018   29.4927 C.ar    1  UNL1       -0.0032
     13 C          27.1549   36.3605   28.7647 C.ar    1  UNL1        0.0196
     14 C          26.5912   37.5483   29.1924 C.ar    1  UNL1        0.1216
     15 C          25.8248   37.5749   30.3423 C.ar    1  UNL1        0.0153
     16 C          25.6262   36.4148   31.0676 C.ar    1  UNL1       -0.0245
     17 C          24.7904   36.4437   32.3213 C.3     1  UNL1        0.0307
     18 C          23.2628   39.4799   27.9741 C.2     1  UNL1        0.3333
     19 O          22.4972   39.0579   27.1401 O.2     1  UNL1       -0.2485
     20 O          22.9975   39.3054   29.2783 O.3     1  UNL1       -0.4425
     21 C          22.2431   38.1199   29.6447 C.3     1  UNL1        0.2351
     22 C          21.0222   38.5243   30.4301 C.ar    1  UNL1        0.0214
     23 C          19.7611   38.2941   29.9119 C.ar    1  UNL1        0.0009
     24 C          18.6400   38.6592   30.6315 C.ar    1  UNL1        0.0189
     25 C          18.7806   39.2671   31.8717 C.ar    1  UNL1        0.0828
     26 C          20.0484   39.5017   32.3870 C.ar    1  UNL1        0.0189
     27 C          21.1655   39.1300   31.6649 C.ar    1  UNL1        0.0009
     28 N          17.6449   39.6437   32.6022 N.ar    1  UNL1       -0.2281
     29 C          17.6175   40.5108   33.6395 C.ar    1  UNL1        0.1020
     30 C          16.3359   40.6043   34.0640 C.ar    1  UNL1        0.0431
     31 C          15.5553   39.7599   33.2667 C.ar    1  UNL1        0.1221
     32 N          16.3387   39.1840   32.3906 N.ar    1  UNL1       -0.1635
@<TRIPOS>BOND
     1    10    11    1
     2    11    16   ar
     3    11    12   ar
     4    12    13   ar
     5    13    14   ar
     6    14    15   ar
     7    14     7    1
     8    15    16   ar
     9    16    17    1
    10     7     8    2
    11     7     9    2
    12     7     5    1
    13     5     1    1
    14     1     2    1
    15     1    18    1
    16     2     3    1
    17     2     4    1
    18    18    19    2
    19    18    20    1
    20    20    21    1
    21    21    22    1
    22    22    27   ar
    23    22    23   ar
    24    23    24   ar
    25    24    25   ar
    26    25    26   ar
    27    25    28    1
    28    26    27   ar
    29    28    32   ar
    30    28    29   ar
    31    29    30   ar
    32    30    31   ar
    33    31    32   ar
    34     5     6    1
@<TRIPOS>MOLECULE
ZINC12984146
 33 36 0 0 0
SMALL
GASTEIGER

@<TRIPOS>ATOM
      1 C          21.8797   38.0260   26.4567 C.3     1  UNL1        0.1361
      2 C          23.4757   39.1518   25.0256 C.3     1  UNL1        0.1679
      3 N          23.2132   38.6370   26.3761 N.4     1  UNL1        0.2875
      4 H          23.2361   39.4259   27.0223 H       1  UNL1        0.2077
      5 C          24.2539   37.6857   26.7884 C.3     1  UNL1        0.1366
      6 C          24.5744   37.8925   28.2464 C.ar    1  UNL1        0.0722
      7 C          25.4834   38.8202   28.7655 C.ar    1  UNL1        0.1231
      8 N          25.4837   38.7067   30.0689 N.ar    1  UNL1       -0.1675
      9 N          24.5778   37.6977   30.4206 N.ar    1  UNL1       -0.2450
     10 C          24.0357   37.2118   29.2844 C.ar    1  UNL1        0.0984
     11 C          24.2728   37.2493   31.7816 C.3     1  UNL1        0.1538
     12 C          25.2054   36.1283   32.1621 C.ar    1  UNL1        0.0021
     13 C          25.8648   36.1600   33.3766 C.ar    1  UNL1       -0.0023
     14 C          26.7166   35.1294   33.7277 C.ar    1  UNL1       -0.0003
     15 C          26.9169   34.0723   32.8599 C.ar    1  UNL1       -0.0000
     16 C          26.2614   34.0431   31.6431 C.ar    1  UNL1       -0.0003
     17 C          25.4057   35.0711   31.2942 C.ar    1  UNL1       -0.0023
     18 C          21.1529   38.5637   27.6625 C.2     1  UNL1        0.0325
     19 O          21.1046   39.7596   27.8580 O.co2   1  UNL1       -0.8589
     20 N          20.5566   37.7154   28.5235 N.2     1  UNL1       -0.2360
     21 C          19.8865   38.2111   29.6352 C.ar    1  UNL1        0.1930
     22 N          18.5883   38.3191   29.8487 N.ar    1  UNL1       -0.2205
     23 C          18.1168   38.8211   30.9800 C.ar    1  UNL1        0.0900
     24 C          18.9909   39.2357   31.9457 C.ar    1  UNL1        0.0575
     25 S          20.5534   38.8646   31.1594 S.2     1  UNL1       -0.0467
     26 C          16.6536   38.9320   31.1973 C.ar    1  UNL1        0.0184
     27 C          15.7678   38.5819   30.1796 C.ar    1  UNL1        0.0046
     28 C          14.4077   38.6812   30.3867 C.ar    1  UNL1        0.0369
     29 C          13.9210   39.1392   31.6033 C.ar    1  UNL1        0.1387
     30 C          14.8006   39.4939   32.6168 C.ar    1  UNL1        0.0369
     31 C          16.1617   39.3920   32.4177 C.ar    1  UNL1        0.0046
     32 O          12.5804   39.2407   31.8024 O.3     1  UNL1       -0.4714
     33 C          11.7560   38.2498   31.1856 C.3     1  UNL1        0.2525
@<TRIPOS>UNITY_ATOM_ATTR
3 1
charge 1
19 1
charge -1
@<TRIPOS>BOND
     1     2     3    1
     2     3     5    1
     3     3     1    1
     4     5     6    1
     5     6    10   ar
     6     6     7   ar
     7     7     8   ar
     8     8     9   ar
     9     9    10   ar
    10     9    11    1
    11    11    12    1
    12    12    17   ar
    13    12    13   ar
    14    13    14   ar
    15    14    15   ar
    16    15    16   ar
    17    16    17   ar
    18     1    18    1
    19    18    19    1
    20    18    20    2
    21    20    21    1
    22    21    25   ar
    23    21    22   ar
    24    22    23   ar
    25    23    24   ar
    26    23    26    1
    27    24    25   ar
    28    26    31   ar
    29    26    27   ar
    30    27    28   ar
    31    28    29   ar
    32    29    30   ar
    33    29    32    1
    34    30    31   ar
    35    32    33    1
    36     3     4    1
@<TRIPOS>MOLECULE
ZINC17181519
 28 30 0 0 0
SMALL
GASTEIGER

@<TRIPOS>ATOM
      1 N          10.5704   39.0842   25.0635 N.am    1  UNL1       -0.2356
      2 C          11.6893   38.4277   25.4289 C.2     1  UNL1        0.2754
      3 O          12.7437   38.6764   24.8837 O.2     1  UNL1       -0.2704
      4 C          10.6246   40.0430   24.0649 C.ar    1  UNL1        0.1689
      5 N          11.1514   39.9541   22.8660 N.ar    1  UNL1       -0.2237
      6 C          11.1315   40.9788   21.9865 C.ar    1  UNL1        0.0893
      7 C          11.6582   41.0139   20.6744 C.ar    1  UNL1        0.0197
      8 C          11.5522   42.1444   19.9075 C.ar    1  UNL1        0.0016
      9 C          10.9295   43.2889   20.3850 C.ar    1  UNL1        0.0006
     10 C          10.4031   43.2901   21.6636 C.ar    1  UNL1        0.0081
     11 C          10.5043   42.1620   22.4390 C.ar    1  UNL1        0.0497
     12 S           9.9882   41.7130   24.0786 S.2     1  UNL1       -0.0512
     13 C           8.3846   38.0328   24.7499 C.3     1  UNL1        0.0237
     14 C           9.2967   38.7837   25.7221 C.3     1  UNL1        0.1003
     15 C          11.6315   37.3891   26.5193 C.3     1  UNL1        0.2930
     16 O          12.9405   37.2597   27.1343 O.3     1  UNL1       -0.4383
     17 C          13.0061   37.4146   28.4661 C.2     1  UNL1        0.3179
     18 O          11.9971   37.6072   29.1023 O.2     1  UNL1       -0.2501
     19 C          14.3382   37.3485   29.1676 C.3     1  UNL1        0.1177
     20 C          14.5023   38.5752   30.0672 C.3     1  UNL1        0.0813
     21 C          15.9613   38.7686   30.3915 C.2     1  UNL1        0.1796
     22 O          16.8126   38.2869   29.6714 O.2     1  UNL1       -0.2908
     23 C          16.3382   39.5092   31.5315 C.ar    1  UNL1        0.0649
     24 C          15.5949   40.4293   32.2652 C.ar    1  UNL1        0.0108
     25 C          16.2109   41.0109   33.3406 C.ar    1  UNL1        0.0186
     26 C          17.4967   40.6688   33.6364 C.ar    1  UNL1        0.0870
     27 S          17.8894   39.5048   32.4131 S.2     1  UNL1       -0.0726
     28 CL         18.4969   41.2518   34.9301 Cl      1  UNL1       -0.0752
@<TRIPOS>BOND
     1    13    14    1
     2    14     1    1
     3     1     4    1
     4     1     2   am
     5     4    12   ar
     6     4     5   ar
     7     5     6   ar
     8     6    11   ar
     9     6     7   ar
    10     7     8   ar
    11     8     9   ar
    12     9    10   ar
    13    10    11   ar
    14    11    12   ar
    15     2     3    2
    16     2    15    1
    17    15    16    1
    18    16    17    1
    19    17    18    2
    20    17    19    1
    21    19    20    1
    22    20    21    1
    23    21    22    2
    24    21    23    1
    25    23    27   ar
    26    23    24   ar
    27    24    25   ar
    28    25    26   ar
    29    26    27   ar
    30    26    28    1
@<TRIPOS>MOLECULE
ZINC10677859
 32 34 0 0 0
SMALL
GASTEIGER

@<TRIPOS>ATOM
      1 O          20.0623   37.4430   29.1905 O.3     1  UNL1       -0.4387
      2 C          21.1057   37.3477   28.3413 C.2     1  UNL1        0.3571
      3 O          20.9090   37.1857   27.1523 O.2     1  UNL1       -0.2433
      4 C          24.2326   37.2151   30.1890 C.ar    1  UNL1        0.0397
      5 C          24.6536   37.8932   29.0594 C.ar    1  UNL1        0.0847
      6 C          23.5282   38.0337   28.2163 C.ar    1  UNL1        0.0074
      7 C          22.4773   37.4396   28.8518 C.ar    1  UNL1        0.1293
      8 N          22.9255   36.9410   30.0562 N.ar    1  UNL1       -0.3514
      9 C          23.4951   38.7115   26.8708 C.3     1  UNL1        0.0330
     10 H          22.3741   36.4599   30.7147 H       1  UNL1        0.1658
     11 C          25.0969   35.3241   31.5404 C.3     1  UNL1        0.0066
     12 C          25.0956   36.8443   31.3675 C.3     1  UNL1        0.0438
     13 C          26.0160   38.3822   28.7890 C.2     1  UNL1        0.3421
     14 O          26.4176   39.3929   29.3312 O.2     1  UNL1       -0.2449
     15 O          26.8175   37.7087   27.9404 O.3     1  UNL1       -0.4413
     16 C          27.2837   38.4241   26.7660 C.3     1  UNL1        0.2560
     17 C          19.6053   38.7798   29.5259 C.3     1  UNL1        0.2450
     18 C          20.4519   39.8111   28.7771 C.3     1  UNL1        0.0575
     19 C          19.7424   38.9999   31.0105 C.2     1  UNL1        0.2710
     20 O          20.8424   39.0246   31.5208 O.2     1  UNL1       -0.2706
     21 N          18.6428   39.1693   31.7711 N.am    1  UNL1       -0.2374
     22 C          18.7787   39.4916   33.1937 C.3     1  UNL1        0.0817
     23 C          19.4118   40.8763   33.3445 C.3     1  UNL1        0.0202
     24 C          19.5538   41.2131   34.8302 C.3     1  UNL1        0.0017
     25 C          20.4441   40.1688   35.5070 C.3     1  UNL1        0.0001
     26 C          19.8110   38.7841   35.3561 C.3     1  UNL1        0.0017
     27 C          19.6690   38.4474   33.8704 C.3     1  UNL1        0.0202
     28 C          17.3798   39.0382   31.2057 C.ar    1  UNL1        0.1689
     29 N          17.0336   38.4467   30.0790 N.ar    1  UNL1       -0.2222
     30 C          15.7761   38.4120   29.6838 C.ar    1  UNL1        0.1079
     31 C          14.8372   39.0010   30.4642 C.ar    1  UNL1        0.0588
     32 S          15.8518   39.6047   31.8056 S.2     1  UNL1       -0.0506
@<TRIPOS>BOND
     1    11    12    1
     2    12     4    1
     3     4     8   ar
     4     4     5   ar
     5     5     6   ar
     6     5    13    1
     7     6     7   ar
     8     6     9    1
     9     7     8   ar
    10     7     2    1
    11     2     3    2
    12     2     1    1
    13     1    17    1
    14    17    18    1
    15    17    19    1
    16    19    20    2
    17    19    21   am
    18    21    28    1
    19    21    22    1
    20    28    32   ar
    21    28    29   ar
    22    29    30   ar
    23    30    31   ar
    24    31    32   ar
    25    22    27    1
    26    22    23    1
    27    23    24    1
    28    24    25    1
    29    25    26    1
    30    26    27    1
    31    13    14    2
    32    13    15    1
    33    15    16    1
    34     8    10    1
@<TRIPOS>MOLECULE
ZINC21226147
 33 36 0 0 0
SMALL
GASTEIGER

@<TRIPOS>ATOM
      1 C          23.1620   39.2842   27.7824 C.2     1  UNL1        0.2665
      2 O          22.7041   40.4073   27.7761 O.2     1  UNL1       -0.2710
      3 N          24.4211   39.0723   28.2139 N.am    1  UNL1       -0.2684
      4 C          22.3825   38.0450   25.7809 C.3     1  UNL1        0.0575
      5 C          22.3231   38.1258   27.3077 C.3     1  UNL1        0.2446
      6 O          20.9472   38.3199   27.7289 O.3     1  UNL1       -0.4397
      7 C          20.5351   37.6290   28.8098 C.2     1  UNL1        0.3415
      8 O          20.3586   36.4295   28.7330 O.2     1  UNL1       -0.2449
      9 C          20.2985   38.3295   30.0869 C.ar    1  UNL1        0.0758
     10 C          18.9930   38.5938   30.5095 C.ar    1  UNL1        0.0080
     11 C          18.7761   39.2426   31.7050 C.ar    1  UNL1        0.0195
     12 C          19.8543   39.6446   32.4853 C.ar    1  UNL1        0.0863
     13 C          21.1547   39.3884   32.0656 C.ar    1  UNL1        0.0195
     14 C          21.3795   38.7351   30.8742 C.ar    1  UNL1        0.0080
     15 N          19.6299   40.3084   33.6969 N.ar    1  UNL1       -0.1886
     16 C          20.4640   40.3848   34.7575 C.ar    1  UNL1        0.2258
     17 N          19.8630   41.0986   35.6729 N.ar    1  UNL1       -0.1045
     18 N          18.7064   41.4787   35.2641 N.ar    1  UNL1       -0.0222
     19 N          18.4910   41.0439   34.0695 N.ar    1  UNL1       -0.0385
     20 C          25.1845   40.1697   28.8133 C.3     1  UNL1        0.1206
     21 C          26.3336   40.5348   27.9091 C.ar    1  UNL1       -0.0023
     22 C          27.6346   40.3204   28.3240 C.ar    1  UNL1       -0.0026
     23 C          28.6885   40.6504   27.4925 C.ar    1  UNL1       -0.0003
     24 C          28.4416   41.2050   26.2506 C.ar    1  UNL1       -0.0000
     25 C          27.1406   41.4247   25.8380 C.ar    1  UNL1       -0.0003
     26 C          26.0866   41.0894   26.6672 C.ar    1  UNL1       -0.0026
     27 C          25.0263   37.7445   28.0836 C.3     1  UNL1        0.1206
     28 C          25.3593   37.2079   29.4518 C.ar    1  UNL1       -0.0023
     29 C          26.6778   36.9978   29.8099 C.ar    1  UNL1       -0.0026
     30 C          26.9834   36.5105   31.0669 C.ar    1  UNL1       -0.0003
     31 C          25.9700   36.2230   31.9620 C.ar    1  UNL1       -0.0000
     32 C          24.6512   36.4276   31.6019 C.ar    1  UNL1       -0.0003
     33 C          24.3458   36.9203   30.3470 C.ar    1  UNL1       -0.0026
@<TRIPOS>BOND
     1     4     5    1
     2     5     1    1
     3     5     6    1
     4     1     2    2
     5     1     3   am
     6     3    20    1
     7     3    27    1
     8    20    21    1
     9    21    26   ar
    10    21    22   ar
    11    22    23   ar
    12    23    24   ar
    13    24    25   ar
    14    25    26   ar
    15    27    28    1
    16    28    33   ar
    17    28    29   ar
    18    29    30   ar
    19    30    31   ar
    20    31    32   ar
    21    32    33   ar
    22     6     7    1
    23     7     8    2
    24     7     9    1
    25     9    14   ar
    26     9    10   ar
    27    10    11   ar
    28    11    12   ar
    29    12    13   ar
    30    12    15    1
    31    13    14   ar
    32    15    19   ar
    33    15    16   ar
    34    16    17   ar
    35    17    18   ar
    36    18    19   ar
@<TRIPOS>MOLECULE
ZINC26025190
 32 34 0 0 0
SMALL
GASTEIGER

@<TRIPOS>ATOM
      1 N          11.4802   37.7046   27.3032 N.am    1  UNL1       -0.2611
      2 C          12.7809   37.6095   27.6431 C.2     1  UNL1        0.2722
      3 O          13.6359   37.6373   26.7835 O.2     1  UNL1       -0.2707
      4 H          10.7861   37.6820   28.0011 H       1  UNL1        0.1569
      5 C          10.7319   38.8551   23.9378 C.ar    1  UNL1        0.0897
      6 C          10.3431   37.6567   23.4073 C.ar    1  UNL1        0.0572
      7 S          10.5431   36.5861   24.8255 S.2     1  UNL1       -0.0508
      8 C          11.1187   37.8345   25.9679 C.ar    1  UNL1        0.1656
      9 N          11.1099   38.9123   25.2061 N.ar    1  UNL1       -0.2239
     10 C          10.7264   43.6098   20.6888 C.3     1  UNL1        0.0310
     11 C          10.7279   42.3655   21.5390 C.ar    1  UNL1       -0.0218
     12 C          11.0989   41.1532   20.9855 C.ar    1  UNL1       -0.0042
     13 C          11.1023   40.0106   21.7595 C.ar    1  UNL1        0.0012
     14 C          10.7308   40.0798   23.1011 C.ar    1  UNL1        0.0182
     15 C          10.3529   41.3030   23.6521 C.ar    1  UNL1        0.0012
     16 C          10.3580   42.4400   22.8699 C.ar    1  UNL1       -0.0042
     17 C          13.1729   37.4686   29.0915 C.3     1  UNL1        0.2931
     18 O          12.1237   37.9730   29.9202 O.3     1  UNL1       -0.4353
     19 C          12.4831   38.5072   31.1067 C.2     1  UNL1        0.3420
     20 O          11.6302   38.9078   31.8769 O.2     1  UNL1       -0.2449
     21 C          13.8501   38.6010   31.4546 C.2     1  UNL1        0.0850
     22 C          14.3198   39.7184   32.0639 C.2     1  UNL1        0.0441
     23 C          15.6898   39.8124   32.4126 C.ar    1  UNL1        0.1453
     24 C          16.2035   40.5717   33.4239 C.ar    1  UNL1        0.0467
     25 C          17.6055   40.3651   33.4129 C.ar    1  UNL1        0.1089
     26 C          17.8626   39.4827   32.3842 C.ar    1  UNL1        0.1295
     27 O          16.7029   39.1621   31.8042 O.2     1  UNL1       -0.4575
     28 C          19.2204   38.9635   31.9869 C.3     1  UNL1        0.0727
     29 C          18.5937   40.9723   34.3219 C.2     1  UNL1        0.3441
     30 O          18.9612   42.1167   34.1427 O.2     1  UNL1       -0.2448
     31 O          19.0897   40.2588   35.3518 O.3     1  UNL1       -0.4413
     32 C          20.4824   39.8577   35.2656 C.3     1  UNL1        0.2560
@<TRIPOS>BOND
     1    10    11    1
     2    11    16   ar
     3    11    12   ar
     4    12    13   ar
     5    13    14   ar
     6    14    15   ar
     7    14     5    1
     8    15    16   ar
     9     5     9   ar
    10     5     6   ar
    11     6     7   ar
    12     7     8   ar
    13     8     9   ar
    14     8     1    1
    15     1     2   am
    16     2     3    2
    17     2    17    1
    18    17    18    1
    19    18    19    1
    20    19    20    2
    21    19    21    1
    22    21    22    2
    23    22    23    1
    24    23    27   ar
    25    23    24   ar
    26    24    25   ar
    27    25    26   ar
    28    25    29    1
    29    26    27   ar
    30    26    28    1
    31    29    30    2
    32    29    31    1
    33    31    32    1
    34     1     4    1
@<TRIPOS>MOLECULE
ZINC27561189
 31 33 0 0 0
SMALL
GASTEIGER

@<TRIPOS>ATOM
      1 N          27.5509   40.2397   27.5490 N.am    1  UNL1       -0.2740
      2 C          27.7586   41.4294   28.1474 C.2     1  UNL1        0.2825
      3 O          28.3335   41.4794   29.2140 O.2     1  UNL1       -0.2684
      4 H          27.0843   40.1990   26.6831 H       1  UNL1        0.1555
      5 C          27.2897   38.2166   28.9879 C.ar    1  UNL1        0.0962
      6 C          28.0050   37.0554   29.4850 C.ar    1  UNL1        0.0205
      7 C          29.2985   36.9204   29.0894 C.ar    1  UNL1        0.0374
      8 S          29.5578   38.3389   28.0449 S.2     1  UNL1       -0.0715
      9 C          27.9942   39.0737   28.1526 C.ar    1  UNL1        0.0872
     10 C          27.3613   36.0726   30.3811 C.ar    1  UNL1        0.0302
     11 C          26.8056   34.8592   30.0740 C.ar    1  UNL1        0.0070
     12 C          26.2570   34.1061   31.0903 C.ar    1  UNL1        0.0075
     13 C          26.2793   34.5898   32.3579 C.ar    1  UNL1        0.0354
     14 S          27.1060   36.1578   32.1460 S.2     1  UNL1       -0.0864
     15 C          25.8959   38.4716   29.3494 C.2     1  UNL1        0.3430
     16 O          25.6148   39.4207   30.0567 O.2     1  UNL1       -0.2448
     17 O          24.9219   37.6544   28.8985 O.3     1  UNL1       -0.4454
     18 C          22.5375   37.6156   29.2910 C.3     1  UNL1        0.0513
     19 C          23.9209   37.2582   29.8383 C.3     1  UNL1        0.2089
     20 C          27.2766   42.6974   27.4909 C.3     1  UNL1        0.1921
     21 N          26.0189   43.1257   28.1178 N.4     1  UNL1        0.2867
     22 C          26.2259   44.3155   28.9533 C.3     1  UNL1        0.1062
     23 C          24.9329   44.6458   29.7021 C.3     1  UNL1        0.0612
     24 C          23.8126   44.8988   28.6894 C.3     1  UNL1        0.0126
     25 C          23.6502   43.6628   27.8004 C.3     1  UNL1        0.0670
     26 C          24.9804   43.3610   27.1066 C.3     1  UNL1        0.1557
     27 H          25.6970   42.3718   28.7247 H       1  UNL1        0.2076
     28 C          24.8305   42.1333   26.2457 C.2     1  UNL1        0.3674
     29 O          24.5577   41.0704   26.7513 O.2     1  UNL1       -0.2437
     30 O          25.0001   42.2205   24.9169 O.3     1  UNL1       -0.4405
     31 C          25.8983   41.2594   24.3026 C.3     1  UNL1        0.2558
@<TRIPOS>UNITY_ATOM_ATTR
21 1
charge 1
@<TRIPOS>BOND
     1    18    19    1
     2    19    17    1
     3    17    15    1
     4    15    16    2
     5    15     5    1
     6     5     9   ar
     7     5     6   ar
     8     6     7   ar
     9     6    10    1
    10     7     8   ar
    11     8     9   ar
    12     9     1    1
    13     1     2   am
    14     2     3    2
    15     2    20    1
    16    20    21    1
    17    21    26    1
    18    21    22    1
    19    22    23    1
    20    23    24    1
    21    24    25    1
    22    25    26    1
    23    26    28    1
    24    28    29    2
    25    28    30    1
    26    30    31    1
    27    10    14   ar
    28    10    11   ar
    29    11    12   ar
    30    12    13   ar
    31    13    14   ar
    32     1     4    1
    33    21    27    1
@<TRIPOS>MOLECULE
ZINC08654840
 31 33 0 0 0
SMALL
GASTEIGER

@<TRIPOS>ATOM
      1 C          22.2155   40.1593   28.2747 C.ar    1  UNL1        0.1012
      2 C          22.8835   39.1194   27.5868 C.ar    1  UNL1        0.0258
      3 C          22.3110   37.8819   27.5746 C.ar    1  UNL1        0.0638
      4 C          21.0825   37.7149   28.2517 C.ar    1  UNL1        0.2768
      5 O          20.5328   36.6254   28.2683 O.2     1  UNL1       -0.2655
      6 N          20.5229   38.7664   28.8790 N.ar    1  UNL1       -0.2121
      7 N          21.0781   39.9239   28.8853 N.ar    1  UNL1       -0.1665
      8 C          24.6766   42.9847   27.9681 C.ar    1  UNL1        0.1183
      9 C          24.1310   41.7174   27.9277 C.ar    1  UNL1        0.0211
     10 C          22.8060   41.5197   28.3111 C.ar    1  UNL1        0.0207
     11 C          22.0359   42.6057   28.7235 C.ar    1  UNL1        0.0013
     12 C          22.5902   43.8690   28.7549 C.ar    1  UNL1       -0.0029
     13 C          23.9078   44.0587   28.3781 C.ar    1  UNL1       -0.0032
     14 C          24.5073   45.4407   28.4141 C.3     1  UNL1        0.0324
     15 S          26.3538   43.2356   27.4895 S.O2    1  UNL1        0.0630
     16 O          26.3228   43.8610   26.2139 O.2     1  UNL1       -0.1528
     17 O          27.0125   43.8162   28.6068 O.2     1  UNL1       -0.1528
     18 N          27.0284   41.7397   27.2670 N.3     1  UNL1       -0.1555
     19 C          29.0677   40.9691   28.3756 C.3     1  UNL1        0.0206
     20 C          27.5383   40.9878   28.4163 C.3     1  UNL1        0.0958
     21 C          27.1155   41.1682   25.9208 C.3     1  UNL1        0.0958
     22 C          26.4850   39.7742   25.9168 C.3     1  UNL1        0.0206
     23 C          19.2485   38.5834   29.5781 C.3     1  UNL1        0.1571
     24 C          19.4241   38.9149   31.0377 C.ar    1  UNL1        0.0022
     25 C          18.3135   39.0565   31.8502 C.ar    1  UNL1       -0.0023
     26 C          18.4676   39.3542   33.1886 C.ar    1  UNL1       -0.0003
     27 C          19.7468   39.5233   33.7197 C.ar    1  UNL1       -0.0000
     28 C          20.8626   39.3847   32.8935 C.ar    1  UNL1       -0.0003
     29 C          20.6950   39.0817   31.5580 C.ar    1  UNL1       -0.0023
     30 C          19.9191   39.8474   35.1516 C.2     1  UNL1       -0.0000
     31 C          19.7222   41.0866   35.5790 C.2     1  UNL1       -0.0000
@<TRIPOS>BOND
     1    19    20    1
     2    20    18    1
     3    18    21    1
     4    18    15    1
     5    21    22    1
     6    15    16    2
     7    15    17    2
     8    15     8    1
     9     8    13   ar
    10     8     9   ar
    11     9    10   ar
    12    10    11   ar
    13    10     1    1
    14    11    12   ar
    15    12    13   ar
    16    13    14    1
    17     1     7   ar
    18     1     2   ar
    19     2     3   ar
    20     3     4   ar
    21     4     5    2
    22     4     6   ar
    23     6     7   ar
    24     6    23    1
    25    23    24    1
    26    24    29   ar
    27    24    25   ar
    28    25    26   ar
    29    26    27   ar
    30    27    28   ar
    31    27    30    1
    32    28    29   ar
    33    30    31    2
@<TRIPOS>MOLECULE
ZINC13568019
 32 34 0 0 0
SMALL
GASTEIGER

@<TRIPOS>ATOM
      1 C          22.8616   38.3018   28.6871 C.2     1  UNL1        0.0473
      2 C          23.8796   38.2511   27.8107 C.3     1  UNL1        0.1430
      3 C          25.2930   38.0390   28.2709 C.3     1  UNL1        0.0645
      4 C          25.3242   37.4656   29.6653 C.2     1  UNL1        0.0312
      5 C          24.2409   37.5447   30.4693 C.2     1  UNL1        0.0573
      6 N          23.0904   38.1393   30.0249 N.2     1  UNL1       -0.2579
      7 C          24.2754   36.9997   31.8740 C.3     1  UNL1        0.0465
      8 C          25.2148   35.7906   31.9282 C.3     1  UNL1        0.0239
      9 C          26.6083   36.2392   31.4760 C.3     1  UNL1        0.1605
     10 C          26.5068   36.8430   30.1019 C.2     1  UNL1        0.1808
     11 O          27.4641   36.7913   29.3556 O.2     1  UNL1       -0.2911
     12 C          25.2856   35.2595   33.3615 C.3     1  UNL1        0.0014
     13 C          26.0322   39.3523   28.2594 C.ar    1  UNL1       -0.0152
     14 C          27.1863   39.4891   27.5100 C.ar    1  UNL1       -0.0038
     15 C          27.8627   40.6944   27.4947 C.ar    1  UNL1        0.0020
     16 C          27.3920   41.7612   28.2369 C.ar    1  UNL1        0.0296
     17 C          26.2396   41.6237   28.9918 C.ar    1  UNL1        0.1398
     18 C          25.5599   40.4173   29.0022 C.ar    1  UNL1        0.0257
     19 F          25.7789   42.6656   29.7180 F       1  UNL1       -0.2042
     20 C          27.5330   35.0498   31.4371 C.2     1  UNL1        0.3239
     21 O          28.6455   35.1343   31.9008 O.2     1  UNL1       -0.2496
     22 O          27.1205   33.8969   30.8874 O.3     1  UNL1       -0.4482
     23 C          27.9441   33.3393   29.8295 C.3     1  UNL1        0.2086
     24 C          27.1435   33.3012   28.5262 C.3     1  UNL1        0.0513
     25 C          23.6152   38.4090   26.4302 C.2     1  UNL1        0.3225
     26 O          23.4849   37.4297   25.7198 O.2     1  UNL1       -0.2497
     27 O          23.5071   39.6456   25.9010 O.3     1  UNL1       -0.4482
     28 C          24.4968   40.0310   24.9448 C.3     1  UNL1        0.2086
     29 C          24.9302   41.4736   25.2125 C.3     1  UNL1        0.0513
     30 C          21.4585   38.5393   28.1913 C.3     1  UNL1        0.0419
     31 C          21.6323   41.0074   28.5384 C.3     1  UNL1        0.0004
     32 C          20.8577   39.7439   28.9183 C.3     1  UNL1        0.0060
@<TRIPOS>BOND
     1    31    32    1
     2    32    30    1
     3    30     1    1
     4     1     6    2
     5     1     2    1
     6     2     3    1
     7     2    25    1
     8     3     4    1
     9     3    13    1
    10     4    10    1
    11     4     5    2
    12     5     7    1
    13     5     6    1
    14     7     8    1
    15     8     9    1
    16     8    12    1
    17     9    10    1
    18     9    20    1
    19    10    11    2
    20    20    21    2
    21    20    22    1
    22    22    23    1
    23    23    24    1
    24    13    18   ar
    25    13    14   ar
    26    14    15   ar
    27    15    16   ar
    28    16    17   ar
    29    17    18   ar
    30    17    19    1
    31    25    26    2
    32    25    27    1
    33    27    28    1
    34    28    29    1
@<TRIPOS>MOLECULE
ZINC26427902
 31 34 0 0 0
SMALL
GASTEIGER

@<TRIPOS>ATOM
      1 C          18.3111   39.0247   31.4571 C.ar    1  UNL1        0.1779
      2 N          17.5638   38.5099   30.5121 N.ar    1  UNL1       -0.2221
      3 C          16.2178   38.5367   30.5822 C.ar    1  UNL1        0.0880
      4 C          15.4205   37.9878   29.5733 C.ar    1  UNL1        0.0193
      5 C          14.0597   38.0372   29.6846 C.ar    1  UNL1        0.0015
      6 C          13.4534   38.6254   30.7873 C.ar    1  UNL1        0.0003
      7 C          14.2060   39.1709   31.7904 C.ar    1  UNL1        0.0063
      8 C          15.5972   39.1350   31.7027 C.ar    1  UNL1        0.0742
      9 C          16.4555   39.7003   32.7520 C.ar    1  UNL1        0.2676
     10 O          15.9800   40.2242   33.7428 O.2     1  UNL1       -0.2665
     11 N          17.7949   39.6213   32.5740 N.ar    1  UNL1       -0.2512
     12 C          18.6588   40.1494   33.5440 C.ar    1  UNL1        0.1025
     13 C          18.9474   41.5063   33.5536 C.ar    1  UNL1        0.0208
     14 C          19.7987   42.0245   34.5107 C.ar    1  UNL1        0.0017
     15 C          20.3691   41.1928   35.4570 C.ar    1  UNL1        0.0032
     16 C          20.0818   39.8408   35.4573 C.ar    1  UNL1        0.0384
     17 C          19.2291   39.3131   34.5009 C.ar    1  UNL1        0.1546
     18 O          18.9496   37.9826   34.4967 O.3     1  UNL1       -0.4740
     19 C          19.6648   37.1666   35.4265 C.3     1  UNL1        0.2056
     20 C          18.9350   37.1663   36.7713 C.3     1  UNL1        0.0512
     21 S          20.0625   38.9441   31.2811 S.3     1  UNL1       -0.0687
     22 C          20.2356   39.5463   29.5829 C.3     1  UNL1        0.1321
     23 N          21.6862   38.4118   27.8184 N.ar    1  UNL1       -0.2161
     24 C          20.6586   38.4102   28.6878 C.ar    1  UNL1        0.1721
     25 N          20.1008   37.2268   28.6086 N.ar    1  UNL1       -0.1118
     26 N          20.7471   36.5401   27.7307 N.ar    1  UNL1       -0.0230
     27 N          21.7075   37.2522   27.2533 N.ar    1  UNL1       -0.0431
     28 C          22.6077   39.5216   27.5624 C.3     1  UNL1        0.1306
     29 C          24.0491   39.0370   27.7308 C.3     1  UNL1        0.0265
     30 C          24.6751   37.3475   29.4617 C.3     1  UNL1        0.0001
     31 C          24.3442   38.8210   29.2164 C.3     1  UNL1        0.0021
@<TRIPOS>BOND
     1    30    31    1
     2    31    29    1
     3    29    28    1
     4    28    23    1
     5    23    27   ar
     6    23    24   ar
     7    24    25   ar
     8    24    22    1
     9    25    26   ar
    10    26    27   ar
    11    22    21    1
    12    21     1    1
    13     1    11   ar
    14     1     2   ar
    15     2     3   ar
    16     3     8   ar
    17     3     4   ar
    18     4     5   ar
    19     5     6   ar
    20     6     7   ar
    21     7     8   ar
    22     8     9   ar
    23     9    10    2
    24     9    11   ar
    25    11    12    1
    26    12    17   ar
    27    12    13   ar
    28    13    14   ar
    29    14    15   ar
    30    15    16   ar
    31    16    17   ar
    32    17    18    1
    33    18    19    1
    34    19    20    1
@<TRIPOS>MOLECULE
ZINC17250585
 32 35 0 0 0
SMALL
GASTEIGER

@<TRIPOS>ATOM
      1 C          25.0006   39.9738   27.9262 C.3     1  UNL1        0.1777
      2 C          25.0963   41.4886   27.7330 C.3     1  UNL1        0.1131
      3 C          26.2044   42.0236   28.5878 C.2     1  UNL1        0.1556
      4 O          25.9372   42.4971   29.6661 O.2     1  UNL1       -0.2959
      5 C          27.6327   41.9875   28.1436 C.3     1  UNL1        0.0673
      6 C          27.8169   42.6138   26.7756 C.3     1  UNL1        0.0397
      7 C          26.7095   42.2510   25.8021 C.3     1  UNL1        0.1407
      8 C          25.3424   41.7881   26.2666 C.3     1  UNL1        0.1268
      9 O          25.5591   43.1153   25.8154 O.3     1  UNL1       -0.3557
     10 C          24.5811   40.8843   25.2949 C.3     1  UNL1        0.0327
     11 C          23.7765   42.1328   28.1618 C.3     1  UNL1        0.0135
     12 O          26.3269   39.4308   28.1587 O.3     1  UNL1       -0.4489
     13 C          26.8127   38.5834   27.2298 C.2     1  UNL1        0.3368
     14 O          27.7737   38.9038   26.5583 O.2     1  UNL1       -0.2453
     15 C          27.4008   36.4790   29.0114 C.3     1  UNL1        0.0306
     16 C          26.4488   36.2695   27.8621 C.2     1  UNL1       -0.0236
     17 C          26.1806   37.2721   27.0291 C.2     1  UNL1        0.0495
     18 C          25.2286   37.0626   25.8797 C.3     1  UNL1        0.0375
     19 C          24.1063   39.6686   29.1296 C.3     1  UNL1        0.0447
     20 C          22.9870   38.7160   28.7046 C.3     1  UNL1        0.0143
     21 C          23.2526   37.3258   29.2855 C.3     1  UNL1        0.0007
     22 C          21.6470   39.2391   29.2258 C.3     1  UNL1        0.1031
     23 C          21.3373   38.6481   30.6197 C.3     1  UNL1        0.0595
     24 C          19.8553   38.2361   30.5033 C.3     1  UNL1        0.1947
     25 O          19.4289   38.6117   29.1629 O.3     1  UNL1       -0.4476
     26 C          20.5044   38.7336   28.3640 C.2     1  UNL1        0.3168
     27 O          20.5519   38.4865   27.1822 O.2     1  UNL1       -0.2501
     28 C          19.0325   38.9680   31.5321 C.ar    1  UNL1        0.0580
     29 C          17.6230   38.9654   31.6410 C.ar    1  UNL1        0.0430
     30 C          17.3118   39.7444   32.6925 C.ar    1  UNL1        0.1795
     31 O          18.4518   40.2161   33.2232 O.2     1  UNL1       -0.4475
     32 C          19.4988   39.7445   32.5266 C.ar    1  UNL1        0.1789
@<TRIPOS>BOND
     1    15    16    1
     2    16    17    2
     3    17    18    1
     4    17    13    1
     5    13    14    2
     6    13    12    1
     7    12     1    1
     8     1    19    1
     9     1     2    1
    10    19    20    1
    11    20    21    1
    12    20    22    1
    13    22    26    1
    14    22    23    1
    15    23    24    1
    16    24    25    1
    17    24    28    1
    18    25    26    1
    19    26    27    2
    20    28    32   ar
    21    28    29   ar
    22    29    30   ar
    23    30    31   ar
    24    31    32   ar
    25     2     8    1
    26     2     3    1
    27     2    11    1
    28     3     4    2
    29     3     5    1
    30     5     6    1
    31     6     7    1
    32     7     9    1
    33     7     8    1
    34     8     9    1
    35     8    10    1
@<TRIPOS>MOLECULE
ZINC28298233
 32 35 0 0 0
SMALL
GASTEIGER

@<TRIPOS>ATOM
      1 C          12.2720   38.2661   30.2986 C.2     1  UNL1        0.3419
      2 O          11.5927   38.7199   31.2000 O.2     1  UNL1       -0.2449
      3 C          14.2914   39.0642   31.3162 C.2     1  UNL1        0.0098
      4 C          13.6856   38.2727   30.4040 C.2     1  UNL1        0.0820
      5 C          21.2797   37.9737   29.4914 C.3     1  UNL1        0.0476
      6 C          20.1331   38.9032   29.8938 C.3     1  UNL1        0.1704
      7 C          20.0190   38.9975   31.4336 C.3     1  UNL1        0.0730
      8 C          18.5174   39.0854   31.6327 C.ar    1  UNL1        0.0184
      9 C          17.7536   39.4668   32.7142 C.ar    1  UNL1        0.0357
     10 C          16.3703   39.4657   32.6249 C.ar    1  UNL1        0.1385
     11 C          15.7563   39.0710   31.4254 C.ar    1  UNL1        0.0372
     12 C          16.5411   38.6900   30.3344 C.ar    1  UNL1        0.0396
     13 C          17.9252   38.6895   30.4368 C.ar    1  UNL1        0.1347
     14 O          18.8655   38.3422   29.5134 O.3     1  UNL1       -0.4791
     15 O          15.6154   39.8376   33.6901 O.3     1  UNL1       -0.4714
     16 C          15.9063   41.1063   34.2801 C.3     1  UNL1        0.2525
     17 O          11.6798   37.7564   29.1985 O.3     1  UNL1       -0.4350
     18 C          12.5361   37.3617   28.1247 C.3     1  UNL1        0.2957
     19 C          11.7648   37.3909   26.8305 C.ar    1  UNL1        0.2811
     20 N          11.3043   38.4559   26.2197 N.ar    1  UNL1       -0.1882
     21 C          10.6908   38.0015   25.1124 C.ar    1  UNL1        0.2247
     22 N          10.8007   36.7067   25.1104 N.ar    1  UNL1       -0.0566
     23 O          11.4144   36.3358   26.0888 O.2     1  UNL1       -0.3333
     24 C           9.9981   38.8395   24.0689 C.3     1  UNL1        0.2736
     25 O          10.8382   38.9588   22.9191 O.3     1  UNL1       -0.4671
     26 C          11.1993   40.2152   22.5461 C.ar    1  UNL1        0.1394
     27 C          11.0541   40.6162   21.2263 C.ar    1  UNL1        0.0392
     28 C          11.4157   41.8953   20.8499 C.ar    1  UNL1        0.0327
     29 C          11.9338   42.7729   21.7870 C.ar    1  UNL1        0.1403
     30 C          12.0848   42.3720   23.1037 C.ar    1  UNL1        0.0327
     31 C          11.7184   41.0955   23.4840 C.ar    1  UNL1        0.0392
     32 F          12.2918   44.0219   21.4166 F       1  UNL1       -0.2042
@<TRIPOS>BOND
     1     5     6    1
     2     6    14    1
     3     6     7    1
     4     7     8    1
     5     8    13   ar
     6     8     9   ar
     7     9    10   ar
     8    10    11   ar
     9    10    15    1
    10    11    12   ar
    11    11     3    1
    12    12    13   ar
    13    13    14    1
    14     3     4    2
    15     4     1    1
    16     1     2    2
    17     1    17    1
    18    17    18    1
    19    18    19    1
    20    19    23   ar
    21    19    20   ar
    22    20    21   ar
    23    21    22   ar
    24    21    24    1
    25    22    23   ar
    26    24    25    1
    27    25    26    1
    28    26    31   ar
    29    26    27   ar
    30    27    28   ar
    31    28    29   ar
    32    29    30   ar
    33    29    32    1
    34    30    31   ar
    35    15    16    1
@<TRIPOS>MOLECULE
ZINC06228300
 31 33 0 0 0
SMALL
GASTEIGER

@<TRIPOS>ATOM
      1 N          25.1331   39.1155   28.1481 N.3     1  UNL1       -0.1466
      2 S          26.0841   37.7612   28.2078 S.O2    1  UNL1        0.0639
      3 O          25.6528   36.9151   27.1508 O.2     1  UNL1       -0.1528
      4 O          27.4267   38.2124   28.3229 O.2     1  UNL1       -0.1528
      5 C          25.7040   36.9234   29.7106 C.ar    1  UNL1        0.1220
      6 C          24.8829   37.5233   30.6474 C.ar    1  UNL1        0.0222
      7 C          24.5804   36.8653   31.8241 C.ar    1  UNL1        0.0307
      8 C          25.1083   35.6089   32.0697 C.ar    1  UNL1        0.1362
      9 C          25.9346   35.0113   31.1333 C.ar    1  UNL1        0.0069
     10 C          26.2317   35.6693   29.9546 C.ar    1  UNL1        0.0179
     11 C          26.5096   33.6439   31.3988 C.3     1  UNL1        0.0334
     12 F          24.8170   34.9665   33.2218 F       1  UNL1       -0.2045
     13 C          23.9728   39.1570   27.2547 C.3     1  UNL1        0.1225
     14 C          20.3926   38.6764   29.5436 C.ar    1  UNL1        0.0756
     15 C          20.8239   39.9526   29.1758 C.ar    1  UNL1        0.0062
     16 C          21.9798   40.1003   28.4376 C.ar    1  UNL1       -0.0027
     17 C          22.7114   38.9876   28.0616 C.ar    1  UNL1       -0.0045
     18 C          22.2868   37.7199   28.4182 C.ar    1  UNL1       -0.0027
     19 C          21.1356   37.5580   29.1608 C.ar    1  UNL1        0.0062
     20 C          19.1560   38.5105   30.3346 C.2     1  UNL1        0.3412
     21 O          18.0749   38.5218   29.7810 O.2     1  UNL1       -0.2449
     22 O          19.2275   38.3466   31.6697 O.3     1  UNL1       -0.4454
     23 C          19.9914   39.0145   33.8835 C.3     1  UNL1        0.0513
     24 C          19.7300   39.4665   32.4454 C.3     1  UNL1        0.2089
     25 C          25.4519   40.2721   28.9889 C.3     1  UNL1        0.1226
     26 C          25.5587   41.5046   28.1284 C.ar    1  UNL1       -0.0014
     27 C          26.5158   41.5916   27.1290 C.ar    1  UNL1        0.0178
     28 C          26.5836   42.7377   26.3595 C.ar    1  UNL1        0.0986
     29 N          25.7554   43.7418   26.5705 N.ar    1  UNL1       -0.2423
     30 C          24.8298   43.6919   27.5085 C.ar    1  UNL1        0.0986
     31 C          24.7022   42.5784   28.3171 C.ar    1  UNL1        0.0178
@<TRIPOS>BOND
     1    23    24    1
     2    24    22    1
     3    22    20    1
     4    20    21    2
     5    20    14    1
     6    14    19   ar
     7    14    15   ar
     8    15    16   ar
     9    16    17   ar
    10    17    18   ar
    11    17    13    1
    12    18    19   ar
    13    13     1    1
    14     1    25    1
    15     1     2    1
    16    25    26    1
    17    26    31   ar
    18    26    27   ar
    19    27    28   ar
    20    28    29   ar
    21    29    30   ar
    22    30    31   ar
    23     2     3    2
    24     2     4    2
    25     2     5    1
    26     5    10   ar
    27     5     6   ar
    28     6     7   ar
    29     7     8   ar
    30     8     9   ar
    31     8    12    1
    32     9    10   ar
    33     9    11    1
@<TRIPOS>MOLECULE
ZINC31477693
 30 32 0 0 0
SMALL
GASTEIGER

@<TRIPOS>ATOM
      1 C          20.8135   39.0937   28.2183 C.3     1  UNL1        0.2770
      2 C          20.3215   38.1703   29.3029 C.2     1  UNL1        0.2182
      3 O          20.2648   36.9748   29.1024 O.2     1  UNL1       -0.2873
      4 C          20.4407   40.0599   34.0335 C.3     1  UNL1        0.0504
      5 C          19.9834   39.5499   32.6912 C.ar    1  UNL1        0.0433
      6 C          20.7878   39.1025   31.7130 C.ar    1  UNL1        0.0172
      7 C          19.9115   38.7156   30.5986 C.ar    1  UNL1        0.0516
      8 C          18.6211   38.9661   31.0255 C.ar    1  UNL1        0.0461
      9 N          18.6825   39.4638   32.2769 N.ar    1  UNL1       -0.2939
     10 C          17.3639   38.7251   30.2303 C.3     1  UNL1        0.0505
     11 C          17.5779   39.8372   33.0399 C.ar    1  UNL1        0.1789
     12 N          16.7254   39.0723   33.6926 N.ar    1  UNL1       -0.2200
     13 C          15.7260   39.5915   34.3764 C.ar    1  UNL1        0.1081
     14 C          15.5828   40.9403   34.3878 C.ar    1  UNL1        0.0590
     15 S          16.9667   41.4291   33.3687 S.2     1  UNL1       -0.0479
     16 O          22.0051   38.5317   27.6080 O.3     1  UNL1       -0.4368
     17 C          23.1934   38.9613   28.0766 C.2     1  UNL1        0.3448
     18 O          23.3095   40.0996   28.4861 O.2     1  UNL1       -0.2448
     19 C          24.3511   38.0514   28.0927 C.ar    1  UNL1        0.1126
     20 C          24.6383   37.2710   29.2167 C.ar    1  UNL1        0.0689
     21 N          25.6842   36.4632   29.1857 N.ar    1  UNL1       -0.2347
     22 C          26.4588   36.3872   28.1195 C.ar    1  UNL1        0.1388
     23 N          26.2368   37.1032   27.0375 N.ar    1  UNL1       -0.2243
     24 C          25.2075   37.9444   26.9754 C.ar    1  UNL1        0.1154
     25 C          23.7650   37.3450   30.4427 C.3     1  UNL1        0.0524
     26 C          27.6371   35.4480   28.1415 C.3     1  UNL1        0.0586
     27 C          28.7115   35.9550   27.1773 C.3     1  UNL1        0.0080
     28 C          28.2121   35.3843   29.5580 C.3     1  UNL1        0.0080
     29 S          24.9149   38.9004   25.5245 S.3     1  UNL1       -0.0938
     30 C          26.5462   38.7985   24.7468 C.3     1  UNL1        0.0757
@<TRIPOS>BOND
     1     4     5    1
     2     5     9   ar
     3     5     6   ar
     4     6     7   ar
     5     7     8   ar
     6     7     2    1
     7     8     9   ar
     8     8    10    1
     9     9    11    1
    10    11    15   ar
    11    11    12   ar
    12    12    13   ar
    13    13    14   ar
    14    14    15   ar
    15     2     3    2
    16     2     1    1
    17     1    16    1
    18    16    17    1
    19    17    18    2
    20    17    19    1
    21    19    24   ar
    22    19    20   ar
    23    20    21   ar
    24    20    25    1
    25    21    22   ar
    26    22    23   ar
    27    22    26    1
    28    23    24   ar
    29    24    29    1
    30    29    30    1
    31    26    27    1
    32    26    28    1
@<TRIPOS>MOLECULE
ZINC24205081
 30 32 0 0 0
SMALL
GASTEIGER

@<TRIPOS>ATOM
      1 C          14.1302   38.3010   29.6027 C.2     1  UNL1        0.0068
      2 C          14.3658   37.3206   28.7036 C.2     1  UNL1        0.0819
      3 C          17.2496   39.6464   32.1482 C.ar    1  UNL1        0.1826
      4 C          17.5182   38.6958   31.1641 C.ar    1  UNL1        0.1732
      5 C          16.5053   38.2514   30.3377 C.ar    1  UNL1        0.0401
      6 C          15.2111   38.7656   30.4834 C.ar    1  UNL1        0.0043
      7 C          14.9499   39.7234   31.4696 C.ar    1  UNL1        0.0147
      8 C          15.9661   40.1576   32.2941 C.ar    1  UNL1        0.0946
      9 CL         15.6408   41.3453   33.5177 Cl      1  UNL1       -0.0790
     10 O          18.7773   38.2020   31.0216 O.3     1  UNL1       -0.4683
     11 C          19.5502   38.7014   29.9284 C.3     1  UNL1        0.2526
     12 O          18.2472   40.0782   32.9630 O.3     1  UNL1       -0.4716
     13 C          18.4047   39.4001   34.2110 C.3     1  UNL1        0.2055
     14 C          20.8333   39.4749   33.6288 C.3     1  UNL1        0.0038
     15 C          19.8124   39.6529   34.7545 C.3     1  UNL1        0.0438
     16 C          19.8995   41.0794   35.3011 C.3     1  UNL1        0.0038
     17 C          13.3229   36.8723   27.8541 C.2     1  UNL1        0.3418
     18 O          13.5325   35.9829   27.0510 O.2     1  UNL1       -0.2449
     19 O          12.0980   37.4322   27.9365 O.3     1  UNL1       -0.4387
     20 C          11.0813   36.8960   27.0875 C.3     1  UNL1        0.2544
     21 C          10.9068   37.7899   25.8868 C.ar    1  UNL1        0.1096
     22 C          10.9132   37.2626   24.6128 C.ar    1  UNL1        0.0796
     23 C          10.7450   38.1054   23.5138 C.ar    1  UNL1        0.2676
     24 O          10.7451   37.6433   22.3836 O.2     1  UNL1       -0.2665
     25 N          10.5860   39.4493   23.7033 N.ar    1  UNL1       -0.2520
     26 C          10.4170   40.4027   22.7281 C.ar    1  UNL1        0.0919
     27 C          10.2719   41.6897   23.0420 C.ar    1  UNL1        0.0574
     28 S          10.3679   41.6447   24.8249 S.2     1  UNL1       -0.0479
     29 C          10.5972   39.8884   25.0004 C.ar    1  UNL1        0.1815
     30 N          10.7493   39.1024   26.0370 N.ar    1  UNL1       -0.2225
@<TRIPOS>BOND
     1    14    15    1
     2    15    16    1
     3    15    13    1
     4    13    12    1
     5    12     3    1
     6     3     8   ar
     7     3     4   ar
     8     4     5   ar
     9     4    10    1
    10     5     6   ar
    11     6     7   ar
    12     6     1    1
    13     7     8   ar
    14     8     9    1
    15     1     2    2
    16     2    17    1
    17    17    18    2
    18    17    19    1
    19    19    20    1
    20    20    21    1
    21    21    30   ar
    22    21    22   ar
    23    22    23   ar
    24    23    24    2
    25    23    25   ar
    26    25    29   ar
    27    25    26   ar
    28    26    27   ar
    29    27    28   ar
    30    28    29   ar
    31    29    30   ar
    32    10    11    1
@<TRIPOS>MOLECULE
ZINC21332394
 30 33 0 0 0
SMALL
GASTEIGER

@<TRIPOS>ATOM
      1 C          16.9314   39.0349   31.0607 C.ar    1  UNL1        0.0550
      2 C          16.7490   39.7804   32.3064 C.ar    1  UNL1       -0.0153
      3 C          15.5168   40.2849   32.4949 C.ar    1  UNL1        0.0017
      4 S          14.6013   39.7950   31.0539 S.2     1  UNL1       -0.1163
      5 C          15.8418   38.9315   30.2107 C.ar    1  UNL1       -0.0856
      6 C          15.4069   41.0342   33.7953 C.3     1  UNL1        0.0329
      7 C          16.8691   41.3057   34.2128 C.3     1  UNL1        0.0099
      8 C          17.6151   40.1539   33.5101 C.3     1  UNL1        0.0271
      9 C          18.2182   38.4241   30.7231 C.2     1  UNL1        0.3400
     10 O          18.7431   37.6449   31.4958 O.2     1  UNL1       -0.2449
     11 O          18.8220   38.7252   29.5550 O.3     1  UNL1       -0.4353
     12 C          20.2662   38.8734   29.5784 C.3     1  UNL1        0.2929
     13 C          22.2437   40.0068   27.8943 C.3     1  UNL1        0.1153
     14 N          21.8111   38.6265   27.6624 N.am    1  UNL1       -0.2701
     15 C          20.8717   38.0727   28.4544 C.2     1  UNL1        0.2706
     16 O          20.5135   36.9300   28.2624 O.2     1  UNL1       -0.2708
     17 C          22.3997   37.8481   26.5697 C.3     1  UNL1        0.1267
     18 C          23.8734   37.6613   26.8232 C.ar    1  UNL1        0.0273
     19 C          24.8837   37.5315   25.9290 C.ar    1  UNL1        0.0044
     20 C          26.1752   37.3722   26.3951 C.ar    1  UNL1        0.0072
     21 C          26.3919   37.3397   27.7327 C.ar    1  UNL1        0.0352
     22 S          24.7407   37.5458   28.3794 S.2     1  UNL1       -0.0891
     23 N          15.7630   38.2885   28.9871 N.am    1  UNL1       -0.6030
     24 C          14.9094   37.2588   28.8207 C.2     1  UNL1        0.1167
     25 O          15.2087   36.1494   29.2215 O.2     1  UNL1       -0.3098
     26 C          13.6204   37.4752   28.1569 C.ar    1  UNL1        0.1609
     27 C          12.3995   37.5147   28.7679 C.ar    1  UNL1        0.0420
     28 C          11.4507   37.7439   27.7594 C.ar    1  UNL1        0.0438
     29 C          12.1252   37.8333   26.5918 C.ar    1  UNL1        0.1797
     30 O          13.4327   37.6762   26.8360 O.2     1  UNL1       -0.4491
@<TRIPOS>UNITY_ATOM_ATTR
23 1
charge -1
@<TRIPOS>BOND
     1    13    14    1
     2    14    17    1
     3    14    15   am
     4    17    18    1
     5    18    22   ar
     6    18    19   ar
     7    19    20   ar
     8    20    21   ar
     9    21    22   ar
    10    15    16    2
    11    15    12    1
    12    12    11    1
    13    11     9    1
    14     9    10    2
    15     9     1    1
    16     1     5   ar
    17     1     2   ar
    18     2     8    1
    19     2     3   ar
    20     3     4   ar
    21     3     6    1
    22     4     5   ar
    23     5    23    1
    24    23    24    1
    25    24    25    2
    26    24    26    1
    27    26    30   ar
    28    26    27   ar
    29    27    28   ar
    30    28    29   ar
    31    29    30   ar
    32     6     7    1
    33     7     8    1
@<TRIPOS>MOLECULE
ZINC31467967
 31 33 0 0 0
SMALL
GASTEIGER

@<TRIPOS>ATOM
      1 C           8.8243   52.0666   40.9268 C.ar    1  UNL1        0.1181
      2 C           9.3738   50.8468   41.3847 C.ar    1  UNL1        0.1284
      3 N           8.3888   50.0336   41.6495 N.ar    1  UNL1       -0.1619
      4 N           7.1793   50.6788   41.3690 N.ar    1  UNL1       -0.2062
      5 C           7.4508   51.9205   40.9277 C.ar    1  UNL1        0.1635
      6 C           5.9028   50.1260   41.5218 C.ar    1  UNL1        0.1851
      7 C           5.1427   50.4244   42.6519 C.ar    1  UNL1        0.0454
      8 C           3.8857   49.8535   42.7585 C.ar    1  UNL1        0.0624
      9 C           3.4588   49.0162   41.7296 C.ar    1  UNL1        0.2441
     10 N           4.2494   48.7902   40.6937 N.ar    1  UNL1       -0.1088
     11 N           5.4123   49.3235   40.5920 N.ar    1  UNL1       -0.1255
     12 O           2.2340   48.4343   41.7902 O.3     1  UNL1       -0.4552
     13 C           2.1045   47.1335   41.2129 C.3     1  UNL1        0.2543
     14 C           6.4424   52.9603   40.5118 C.3     1  UNL1        0.4352
     15 F           5.8240   53.4912   41.6489 F       1  UNL1       -0.1644
     16 F           7.0900   53.9843   39.8122 F       1  UNL1       -0.1644
     17 F           5.4773   52.3708   39.6884 F       1  UNL1       -0.1644
     18 C           9.5759   53.2658   40.5194 C.2     1  UNL1        0.3444
     19 O          10.0501   53.3353   39.4026 O.2     1  UNL1       -0.2448
     20 O           9.7377   54.2859   41.3849 O.3     1  UNL1       -0.4413
     21 C          10.5356   54.0250   42.5696 C.3     1  UNL1        0.2558
     22 C          11.8424   54.8166   42.4889 C.3     1  UNL1        0.2526
     23 O          12.6625   54.2776   41.4501 O.3     1  UNL1       -0.4718
     24 C          17.3729   54.8544   42.5906 C.3     1  UNL1        0.0311
     25 C          16.1650   53.9767   42.3872 C.ar    1  UNL1       -0.0189
     26 C          16.2617   52.6114   42.5852 C.ar    1  UNL1       -0.0044
     27 C          15.1567   51.8029   42.3942 C.ar    1  UNL1       -0.0016
     28 C          13.9496   52.3587   42.0161 C.ar    1  UNL1        0.0121
     29 C          13.8485   53.7285   41.8225 C.ar    1  UNL1        0.1344
     30 C          14.9605   54.5371   42.0092 C.ar    1  UNL1        0.0323
     31 C          12.7438   51.4776   41.8147 C.3     1  UNL1        0.0342
@<TRIPOS>BOND
     1    24    25    1
     2    25    30   ar
     3    25    26   ar
     4    26    27   ar
     5    27    28   ar
     6    28    29   ar
     7    28    31    1
     8    29    30   ar
     9    29    23    1
    10    23    22    1
    11    22    21    1
    12    21    20    1
    13    20    18    1
    14    18    19    2
    15    18     1    1
    16     1     5   ar
    17     1     2   ar
    18     2     3   ar
    19     3     4   ar
    20     4     5   ar
    21     4     6    1
    22     5    14    1
    23    14    15    1
    24    14    16    1
    25    14    17    1
    26     6    11   ar
    27     6     7   ar
    28     7     8   ar
    29     8     9   ar
    30     9    10   ar
    31     9    12    1
    32    10    11   ar
    33    12    13    1
@<TRIPOS>MOLECULE
ZINC28269218
 33 35 0 0 0
SMALL
GASTEIGER

@<TRIPOS>ATOM
      1 C          20.0610   38.0043   29.6084 C.2     1  UNL1        0.3417
      2 O          20.3619   36.8274   29.6138 O.2     1  UNL1       -0.2449
      3 C          19.4232   39.5995   32.9572 C.ar    1  UNL1        0.0605
      4 C          20.1011   39.0538   31.8773 C.ar    1  UNL1        0.0213
      5 C          19.3784   38.5977   30.7767 C.ar    1  UNL1        0.0813
      6 C          17.9708   38.7159   30.8173 C.ar    1  UNL1        0.0626
      7 C          16.9342   38.3767   29.9223 C.ar    1  UNL1        0.1234
      8 N          15.7954   38.7061   30.4621 N.ar    1  UNL1       -0.1664
      9 N          16.0158   39.2719   31.7234 N.ar    1  UNL1       -0.2360
     10 C          17.3665   39.2839   31.9568 C.ar    1  UNL1        0.1606
     11 N          18.1124   39.6985   32.9708 N.ar    1  UNL1       -0.2312
     12 C          19.6924   41.4691   34.5638 C.3     1  UNL1        0.0063
     13 C          20.2091   40.0910   34.1454 C.3     1  UNL1        0.0404
     14 C          20.0436   39.1099   35.3076 C.3     1  UNL1        0.0063
     15 C          14.9818   39.7664   32.6358 C.3     1  UNL1        0.1069
     16 C          15.2629   41.2304   32.9799 C.3     1  UNL1        0.0264
     17 C          13.6121   39.6546   31.9632 C.3     1  UNL1        0.0264
     18 O          20.3499   38.7684   28.5371 O.3     1  UNL1       -0.4397
     19 C          21.6868   38.6490   27.9834 C.3     1  UNL1        0.2448
     20 C          21.6070   38.0277   26.5875 C.3     1  UNL1        0.0575
     21 C          22.3157   40.0153   27.8898 C.2     1  UNL1        0.2686
     22 O          23.2110   40.2177   27.0972 O.2     1  UNL1       -0.2708
     23 N          21.8830   41.0123   28.6869 N.am    1  UNL1       -0.2503
     24 H          21.1563   40.8479   29.3303 H       1  UNL1        0.1579
     25 C          22.4619   42.2701   28.6006 C.ar    1  UNL1        0.2323
     26 C          23.7652   42.5911   28.8500 C.ar    1  UNL1        0.0741
     27 C          23.8228   43.9801   28.6175 C.ar    1  UNL1        0.1014
     28 N          22.6217   44.3481   28.2701 N.ar    1  UNL1       -0.0798
     29 O          21.8540   43.4143   28.2495 O.2     1  UNL1       -0.3384
     30 C          25.0353   44.8659   28.7450 C.3     1  UNL1        0.0388
     31 C          24.7579   46.2104   28.0698 C.3     1  UNL1        0.0060
     32 C          25.3472   45.0933   30.2255 C.3     1  UNL1        0.0060
     33 C          26.2317   44.1930   28.0693 C.3     1  UNL1        0.0060
@<TRIPOS>BOND
     1    12    13    1
     2    13    14    1
     3    13     3    1
     4     3    11   ar
     5     3     4   ar
     6     4     5   ar
     7     5     6   ar
     8     5     1    1
     9     6    10   ar
    10     6     7   ar
    11     7     8   ar
    12     8     9   ar
    13     9    10   ar
    14     9    15    1
    15    10    11   ar
    16    15    16    1
    17    15    17    1
    18     1     2    2
    19     1    18    1
    20    18    19    1
    21    19    20    1
    22    19    21    1
    23    21    22    2
    24    21    23   am
    25    23    25    1
    26    25    29   ar
    27    25    26   ar
    28    26    27   ar
    29    27    28   ar
    30    27    30    1
    31    28    29   ar
    32    30    31    1
    33    30    32    1
    34    30    33    1
    35    23    24    1
@<TRIPOS>MOLECULE
ZINC15839559
 31 34 0 0 0
SMALL
GASTEIGER

@<TRIPOS>ATOM
      1 C          23.5176   38.9783   26.9125 C.ar    1  UNL1        0.1985
      2 N          22.4331   39.4358   27.4676 N.ar    1  UNL1       -0.1415
      3 N          22.3574   38.9332   28.7733 N.ar    1  UNL1       -0.2062
      4 C          23.4533   38.1506   28.9709 C.ar    1  UNL1        0.2382
      5 N          24.1784   38.1758   27.8164 N.ar    1  UNL1       -0.2218
      6 C          25.3347   37.4840   27.7242 C.ar    1  UNL1        0.2658
      7 O          25.9920   37.5056   26.6953 O.2     1  UNL1       -0.2668
      8 C          25.7635   36.7431   28.8263 C.ar    1  UNL1        0.0518
      9 C          24.9870   36.7471   29.9810 C.ar    1  UNL1        0.0846
     10 N          23.8561   37.4509   30.0205 N.ar    1  UNL1       -0.2114
     11 C          25.4392   35.9569   31.1490 C.ar    1  UNL1        0.0136
     12 C          24.9396   36.2136   32.4221 C.ar    1  UNL1        0.0012
     13 C          25.3815   35.4640   33.4940 C.ar    1  UNL1        0.0000
     14 C          26.3167   34.4626   33.3012 C.ar    1  UNL1       -0.0003
     15 C          26.8150   34.2037   32.0369 C.ar    1  UNL1       -0.0042
     16 C          26.3799   34.9442   30.9569 C.ar    1  UNL1       -0.0204
     17 C          26.9108   34.6636   29.5773 C.3     1  UNL1        0.0306
     18 C          27.0434   35.9575   28.7783 C.3     1  UNL1        0.0289
     19 C          27.3738   35.6200   27.3232 C.3     1  UNL1        0.0049
     20 C          28.1749   36.8011   29.3689 C.3     1  UNL1        0.0046
     21 C          29.5000   36.0503   29.2237 C.3     1  UNL1        0.0003
     22 S          24.0540   39.3291   25.2713 S.3     1  UNL1       -0.0753
     23 C          24.6096   41.0389   25.4808 C.3     1  UNL1        0.0652
     24 C          25.2090   42.1864   27.6177 C.3     1  UNL1        0.0009
     25 C          25.6307   41.1076   26.6181 C.3     1  UNL1        0.0121
     26 C          21.2950   39.2007   29.7460 C.3     1  UNL1        0.2394
     27 C          20.2449   38.1241   29.6515 C.2     1  UNL1        0.3422
     28 O          20.0618   37.5488   28.6049 O.2     1  UNL1       -0.2479
     29 O          19.5127   37.8041   30.7301 O.3     1  UNL1       -0.4471
     30 C          18.6767   38.8494   31.2930 C.3     1  UNL1        0.2086
     31 C          17.2614   38.7323   30.7238 C.3     1  UNL1        0.0513
@<TRIPOS>BOND
     1    24    25    1
     2    25    23    1
     3    23    22    1
     4    22     1    1
     5     1     5   ar
     6     1     2   ar
     7     2     3   ar
     8     3     4   ar
     9     3    26    1
    10     4    10   ar
    11     4     5   ar
    12     5     6   ar
    13     6     7    2
    14     6     8   ar
    15     8    18    1
    16     8     9   ar
    17     9    10   ar
    18     9    11    1
    19    11    16   ar
    20    11    12   ar
    21    12    13   ar
    22    13    14   ar
    23    14    15   ar
    24    15    16   ar
    25    16    17    1
    26    17    18    1
    27    18    19    1
    28    18    20    1
    29    20    21    1
    30    26    27    1
    31    27    28    2
    32    27    29    1
    33    29    30    1
    34    30    31    1
@<TRIPOS>MOLECULE
ZINC26118454
 31 34 0 0 0
SMALL
GASTEIGER

@<TRIPOS>ATOM
      1 N          24.6058   40.8104   28.4279 N.ar    1  UNL1       -0.2862
      2 C          25.5453   41.7263   28.8419 C.ar    1  UNL1        0.1671
      3 N          26.4302   41.0735   29.5585 N.ar    1  UNL1       -0.1282
      4 N          26.1083   39.8313   29.6279 N.ar    1  UNL1       -0.1221
      5 C          25.0026   39.6132   28.9515 C.ar    1  UNL1        0.1938
      6 C          25.5589   43.1720   28.5327 C.ar    1  UNL1        0.0376
      7 C          24.8303   44.0644   29.3211 C.ar    1  UNL1        0.0032
      8 C          24.8507   45.4125   29.0298 C.ar    1  UNL1        0.0018
      9 C          25.5831   45.8797   27.9527 C.ar    1  UNL1        0.0241
     10 C          26.3076   45.0008   27.1677 C.ar    1  UNL1        0.1430
     11 C          26.2996   43.6504   27.4511 C.ar    1  UNL1        0.0271
     12 N          27.0929   45.5101   26.0209 N.pl3   1  UNL1        0.0577
     13 O          26.6465   46.4060   25.3271 O.2     1  UNL1       -0.1261
     14 O          28.1854   45.0331   25.7710 O.2     1  UNL1       -0.1261
     15 C          23.4255   41.0662   27.5986 C.3     1  UNL1        0.1359
     16 C          21.7619   42.6106   28.4977 C.2     1  UNL1       -0.0029
     17 C          22.2512   41.3956   28.4838 C.2     1  UNL1       -0.0017
     18 S          24.1849   38.0647   28.7564 S.3     1  UNL1       -0.0691
     19 C          23.3208   37.9633   30.3436 C.3     1  UNL1        0.1141
     20 C          21.8339   38.0435   30.1120 C.ar    1  UNL1        0.1109
     21 C          21.1881   37.6988   28.9831 C.ar    1  UNL1        0.1970
     22 O          19.8746   37.9179   29.1906 O.2     1  UNL1       -0.4318
     23 C          19.7330   38.4014   30.4369 C.ar    1  UNL1        0.2296
     24 N          20.9193   38.4767   30.9927 N.ar    1  UNL1       -0.2117
     25 C          18.4552   38.7837   31.0744 C.ar    1  UNL1        0.0558
     26 C          17.2574   38.6706   30.3665 C.ar    1  UNL1        0.0048
     27 C          16.0677   39.0282   30.9662 C.ar    1  UNL1        0.0025
     28 C          16.0586   39.4985   32.2672 C.ar    1  UNL1        0.0296
     29 C          17.2432   39.6136   32.9763 C.ar    1  UNL1        0.1403
     30 C          18.4410   39.2534   32.3881 C.ar    1  UNL1        0.0343
     31 F          17.2270   40.0736   34.2466 F       1  UNL1       -0.2042
@<TRIPOS>BOND
     1    16    17    2
     2    17    15    1
     3    15     1    1
     4     1     5   ar
     5     1     2   ar
     6     2     3   ar
     7     2     6    1
     8     3     4   ar
     9     4     5   ar
    10     5    18    1
    11    18    19    1
    12    19    20    1
    13    20    24   ar
    14    20    21   ar
    15    21    22   ar
    16    22    23   ar
    17    23    24   ar
    18    23    25    1
    19    25    30   ar
    20    25    26   ar
    21    26    27   ar
    22    27    28   ar
    23    28    29   ar
    24    29    30   ar
    25    29    31    1
    26     6    11   ar
    27     6     7   ar
    28     7     8   ar
    29     8     9   ar
    30     9    10   ar
    31    10    11   ar
    32    10    12    1
    33    12    13    2
    34    12    14    2
@<TRIPOS>MOLECULE
ZINC25555902
 34 36 0 0 0
SMALL
GASTEIGER

@<TRIPOS>ATOM
      1 C          26.4641   35.1800   29.2705 C.3     1  UNL1        0.0065
      2 C          26.2033   35.4679   30.7617 C.3     1  UNL1        0.0004
      3 C          26.8185   36.8530   31.0550 C.3     1  UNL1        0.0004
      4 C          26.8398   37.5567   29.6686 C.3     1  UNL1        0.0065
      5 C          27.2266   36.3975   28.7269 C.3     1  UNL1        0.0515
      6 C          26.8419   36.6995   27.3111 C.2     1  UNL1        0.1498
      7 O          27.6195   36.4810   26.4134 O.2     1  UNL1       -0.2961
      8 C          25.4791   37.2777   27.0077 C.3     1  UNL1        0.0645
      9 C          25.2699   38.4895   27.9284 C.3     1  UNL1        0.0079
     10 C          25.4171   38.0290   29.3781 C.3     1  UNL1        0.0008
     11 C          24.4236   36.9002   29.6568 C.3     1  UNL1        0.0006
     12 C          22.9989   37.4148   29.4371 C.3     1  UNL1        0.0111
     13 C          22.8454   37.8998   27.9946 C.3     1  UNL1        0.0991
     14 C          23.8477   39.0228   27.7189 C.3     1  UNL1        0.0110
     15 C          23.6901   39.5062   26.2759 C.3     1  UNL1        0.0006
     16 C          28.7331   36.1439   28.8106 C.3     1  UNL1        0.0073
     17 C          26.9527   33.2127   27.8097 C.3     1  UNL1        0.0000
     18 C          27.3138   33.9166   29.1193 C.3     1  UNL1        0.0010
     19 C          27.0430   32.9761   30.2954 C.3     1  UNL1        0.0117
     20 C          27.1810   31.5250   29.8302 C.3     1  UNL1        0.1096
     21 C          26.8301   30.5982   30.9655 C.2     1  UNL1        0.3171
     22 O          27.0232   30.9416   32.1076 O.2     1  UNL1       -0.2501
     23 O          26.3028   29.3910   30.7077 O.3     1  UNL1       -0.4444
     24 C          25.8632   29.1405   29.3467 C.3     1  UNL1        0.2556
     25 C          21.4448   38.4152   27.7852 C.2     1  UNL1        0.3165
     26 O          20.7916   38.0252   26.8466 O.2     1  UNL1       -0.2501
     27 O          20.9230   39.3075   28.6415 O.3     1  UNL1       -0.4444
     28 C          19.7986   38.8675   29.4481 C.3     1  UNL1        0.2556
     29 C          23.5896   40.1858   28.6790 C.3     1  UNL1        0.0122
     30 C          23.7685   41.5106   27.9350 C.3     1  UNL1        0.1096
     31 C          24.8791   42.3013   28.5772 C.2     1  UNL1        0.3171
     32 O          26.0092   41.8739   28.5669 O.2     1  UNL1       -0.2501
     33 O          24.6129   43.4806   29.1604 O.3     1  UNL1       -0.4444
     34 C          23.2961   44.0475   28.9304 C.3     1  UNL1        0.2556
@<TRIPOS>BOND
     1    17    18    1
     2    18    19    1
     3    18     1    1
     4    19    20    1
     5    20    21    1
     6    21    22    2
     7    21    23    1
     8    23    24    1
     9     1     5    1
    10     1     2    1
    11     2     3    1
    12     3     4    1
    13     4    10    1
    14     4     5    1
    15     5     6    1
    16     5    16    1
    17     6     7    2
    18     6     8    1
    19     8     9    1
    20     9    14    1
    21     9    10    1
    22    10    11    1
    23    11    12    1
    24    12    13    1
    25    13    14    1
    26    13    25    1
    27    14    15    1
    28    14    29    1
    29    29    30    1
    30    30    31    1
    31    31    32    2
    32    31    33    1
    33    33    34    1
    34    25    26    2
    35    25    27    1
    36    27    28    1
@<TRIPOS>MOLECULE
ZINC15157479
 34 37 0 0 0
SMALL
GASTEIGER

@<TRIPOS>ATOM
      1 C          22.3248   50.8253   21.9917 C.3     1  UNL1        0.1023
      2 C          23.8374   51.0584   22.0396 C.3     1  UNL1        0.0092
      3 C          24.3521   51.3589   20.6322 C.3     1  UNL1        0.0004
      4 C          24.1268   50.1443   19.7298 C.3     1  UNL1        0.0025
      5 C          22.6251   49.8669   19.6103 C.3     1  UNL1        0.0300
      6 C          22.0200   49.6920   21.0071 C.3     1  UNL1        0.1265
      7 C          21.9139   48.2729   21.5612 C.3     1  UNL1        0.1692
      8 O          20.7709   49.0161   21.1311 O.3     1  UNL1       -0.3533
      9 C          24.1734   52.2123   22.9563 C.3     1  UNL1        0.0007
     10 C          23.4725   53.4831   22.4725 C.3     1  UNL1        0.0036
     11 C          21.9594   53.2541   22.4642 C.3     1  UNL1        0.0438
     12 C          21.6259   52.1011   21.5162 C.3     1  UNL1        0.1744
     13 C          23.8085   54.6416   23.4138 C.3     1  UNL1        0.0001
     14 C          25.6867   52.4380   22.9666 C.3     1  UNL1        0.0000
     15 C          21.8171   50.4481   23.3849 C.3     1  UNL1        0.2144
     16 O          20.4410   50.8870   23.5338 O.3     1  UNL1       -0.4454
     17 C          19.9091   50.8242   24.7709 C.2     1  UNL1        0.3369
     18 O          18.9086   50.1634   24.9693 O.2     1  UNL1       -0.2453
     19 C          21.6721   51.6375   28.0605 C.3     1  UNL1        0.0306
     20 C          21.0261   50.8885   26.9237 C.2     1  UNL1       -0.0236
     21 C          20.5391   51.5545   25.8795 C.2     1  UNL1        0.0495
     22 C          20.6339   53.0579   25.8339 C.3     1  UNL1        0.0375
     23 O          20.1897   51.8884   21.5006 O.3     1  UNL1       -0.4521
     24 C          19.5071   52.4129   20.4707 C.2     1  UNL1        0.3174
     25 O          18.9668   53.4873   20.5886 O.2     1  UNL1       -0.2501
     26 C          19.4143   51.6619   19.1676 C.3     1  UNL1        0.1212
     27 C          23.6992   51.8766   24.3717 C.3     1  UNL1        0.0045
     28 C          24.9020   51.4887   25.2340 C.3     1  UNL1        0.0259
     29 C          24.8293   50.0205   25.5663 C.2     1  UNL1        0.0055
     30 C          24.4020   49.4871   26.7079 C.2     1  UNL1        0.0769
     31 C          24.4899   48.0265   26.6290 C.2     1  UNL1        0.3412
     32 O          24.1711   47.2596   27.5162 O.2     1  UNL1       -0.2449
     33 O          24.9757   47.6598   25.4282 O.3     1  UNL1       -0.4408
     34 C          25.2217   48.8739   24.6643 C.3     1  UNL1        0.2314
@<TRIPOS>BOND
     1    19    20    1
     2    20    21    2
     3    21    22    1
     4    21    17    1
     5    17    18    2
     6    17    16    1
     7    16    15    1
     8    15     1    1
     9     1     6    1
    10     1    12    1
    11     1     2    1
    12     2     3    1
    13     2     9    1
    14     3     4    1
    15     4     5    1
    16     5     6    1
    17     6     8    1
    18     6     7    1
    19     7     8    1
    20     9    10    1
    21     9    14    1
    22     9    27    1
    23    10    11    1
    24    10    13    1
    25    11    12    1
    26    12    23    1
    27    23    24    1
    28    24    25    2
    29    24    26    1
    30    27    28    1
    31    28    29    1
    32    29    34    1
    33    29    30    2
    34    30    31    1
    35    31    32    2
    36    31    33    1
    37    33    34    1
@<TRIPOS>MOLECULE
ZINC25254942
 34 36 0 0 0
SMALL
GASTEIGER

@<TRIPOS>ATOM
      1 C          20.6618   39.5386   29.9698 C.2     1  UNL1        0.0325
      2 O          21.2653   39.9898   30.9202 O.co2   1  UNL1       -0.8589
      3 N          20.9302   39.9860   28.7271 N.2     1  UNL1       -0.2360
      4 C          21.8982   40.9640   28.5347 C.ar    1  UNL1        0.1930
      5 N          23.1691   40.8279   28.2047 N.ar    1  UNL1       -0.2204
      6 C          23.9593   41.8813   28.0621 C.ar    1  UNL1        0.0930
      7 C          23.4504   43.1339   28.2653 C.ar    1  UNL1        0.0576
      8 S          21.7534   42.7405   28.6690 S.2     1  UNL1       -0.0467
      9 C          25.3842   41.7035   27.6913 C.ar    1  UNL1        0.0552
     10 C          26.3685   41.7051   28.6769 C.ar    1  UNL1        0.0414
     11 C          27.6972   41.5382   28.3249 C.ar    1  UNL1        0.1390
     12 C          28.0496   41.3754   26.9923 C.ar    1  UNL1        0.0400
     13 C          27.0763   41.3673   26.0108 C.ar    1  UNL1        0.0401
     14 C          25.7443   41.5334   26.3514 C.ar    1  UNL1        0.1403
     15 O          24.7887   41.5313   25.3843 O.3     1  UNL1       -0.4714
     16 C          24.6302   40.3270   24.6315 C.3     1  UNL1        0.2525
     17 O          28.6592   41.5395   29.2860 O.3     1  UNL1       -0.4714
     18 C          29.9160   40.9501   28.9467 C.3     1  UNL1        0.2525
     19 C          19.6119   38.4779   30.1784 C.3     1  UNL1        0.1361
     20 C          17.2280   38.8589   30.3645 C.3     1  UNL1        0.1679
     21 N          18.5336   39.0147   31.0194 N.4     1  UNL1        0.2875
     22 H          18.7030   40.0125   31.1471 H       1  UNL1        0.2077
     23 C          18.5362   38.3830   32.3455 C.3     1  UNL1        0.1365
     24 C          18.9768   39.3871   33.3793 C.ar    1  UNL1        0.0668
     25 C          20.1308   39.1691   34.1072 C.ar    1  UNL1        0.0044
     26 C          20.5380   40.0922   35.0524 C.ar    1  UNL1        0.0001
     27 C          19.7862   41.2305   35.2793 C.ar    1  UNL1        0.0031
     28 C          18.6291   41.4504   34.5580 C.ar    1  UNL1        0.0371
     29 C          18.2210   40.5282   33.6051 C.ar    1  UNL1        0.1483
     30 O          17.0825   40.7421   32.8944 O.3     1  UNL1       -0.4046
     31 C          15.8452   40.4572   33.5501 C.3     1  UNL1        0.5753
     32 F          15.4383   41.5761   34.2847 F       1  UNL1       -0.1328
     33 F          14.8715   40.1473   32.5945 F       1  UNL1       -0.1328
     34 F          16.0145   39.3691   34.4131 F       1  UNL1       -0.1328
@<TRIPOS>UNITY_ATOM_ATTR
2 1
charge -1
21 1
charge 1
@<TRIPOS>BOND
     1    20    21    1
     2    21    23    1
     3    21    19    1
     4    23    24    1
     5    24    29   ar
     6    24    25   ar
     7    25    26   ar
     8    26    27   ar
     9    27    28   ar
    10    28    29   ar
    11    29    30    1
    12    30    31    1
    13    31    32    1
    14    31    33    1
    15    31    34    1
    16    19     1    1
    17     1     2    1
    18     1     3    2
    19     3     4    1
    20     4     8   ar
    21     4     5   ar
    22     5     6   ar
    23     6     7   ar
    24     6     9    1
    25     7     8   ar
    26     9    14   ar
    27     9    10   ar
    28    10    11   ar
    29    11    12   ar
    30    11    17    1
    31    12    13   ar
    32    13    14   ar
    33    14    15    1
    34    15    16    1
    35    17    18    1
    36    21    22    1
@<TRIPOS>MOLECULE
ZINC24958203
 34 37 0 0 0
SMALL
GASTEIGER

@<TRIPOS>ATOM
      1 O          24.2476   45.7304   27.3792 O.3     1  UNL1       -0.4427
      2 C          24.8312   44.6835   27.9942 C.2     1  UNL1        0.3413
      3 O          25.9629   44.7851   28.4238 O.2     1  UNL1       -0.2449
      4 C          24.0948   43.4119   28.1462 C.ar    1  UNL1        0.0757
      5 C          22.7493   43.4210   28.5192 C.ar    1  UNL1        0.0078
      6 C          22.0675   42.2299   28.6588 C.ar    1  UNL1        0.0201
      7 C          22.7141   41.0281   28.4302 C.ar    1  UNL1        0.1222
      8 C          24.0487   41.0116   28.0654 C.ar    1  UNL1        0.0201
      9 C          24.7410   42.1955   27.9170 C.ar    1  UNL1        0.0078
     10 S          21.8357   39.5114   28.6114 S.O2    1  UNL1        0.0634
     11 O          20.5686   39.6999   27.9963 O.2     1  UNL1       -0.1528
     12 O          21.9720   39.1233   29.9715 O.2     1  UNL1       -0.1528
     13 N          22.6339   38.3729   27.7120 N.3     1  UNL1       -0.1504
     14 C          22.2505   38.1046   26.3168 C.3     1  UNL1        0.1279
     15 C          23.5197   38.1622   25.4517 C.3     1  UNL1        0.1613
     16 O          24.5105   37.2990   26.0146 O.3     1  UNL1       -0.3507
     17 C          24.9362   37.6739   27.3268 C.3     1  UNL1        0.1613
     18 C          23.7433   37.5953   28.2862 C.3     1  UNL1        0.1279
     19 C          24.2878   47.0068   28.0701 C.3     1  UNL1        0.2407
     20 C          24.1844   48.1424   27.0501 C.3     1  UNL1        0.1902
     21 O          23.4679   49.2364   27.6263 O.3     1  UNL1       -0.3435
     22 C          22.6593   49.9571   26.6941 C.3     1  UNL1        0.1599
     23 C          18.6456   50.1516   28.1431 C.ar    1  UNL1       -0.0000
     24 C          18.9283   50.5151   26.8397 C.ar    1  UNL1       -0.0002
     25 C          20.2272   50.4525   26.3709 C.ar    1  UNL1       -0.0016
     26 C          21.2433   50.0258   27.2053 C.ar    1  UNL1        0.0087
     27 C          20.9598   49.6568   28.5070 C.ar    1  UNL1       -0.0016
     28 C          19.6617   49.7244   28.9774 C.ar    1  UNL1       -0.0002
     29 C          23.2031   51.3532   26.5317 C.ar    1  UNL1        0.0087
     30 C          24.1907   51.6060   25.5981 C.ar    1  UNL1       -0.0016
     31 C          24.6860   52.8875   25.4458 C.ar    1  UNL1       -0.0002
     32 C          24.2009   53.9143   26.2342 C.ar    1  UNL1       -0.0000
     33 C          23.2174   53.6603   27.1717 C.ar    1  UNL1       -0.0002
     34 C          22.7184   52.3797   27.3203 C.ar    1  UNL1       -0.0016
@<TRIPOS>BOND
     1    23    28   ar
     2    23    24   ar
     3    24    25   ar
     4    25    26   ar
     5    26    27   ar
     6    26    22    1
     7    27    28   ar
     8    22    29    1
     9    22    21    1
    10    29    34   ar
    11    29    30   ar
    12    30    31   ar
    13    31    32   ar
    14    32    33   ar
    15    33    34   ar
    16    21    20    1
    17    20    19    1
    18    19     1    1
    19     1     2    1
    20     2     3    2
    21     2     4    1
    22     4     9   ar
    23     4     5   ar
    24     5     6   ar
    25     6     7   ar
    26     7     8   ar
    27     7    10    1
    28     8     9   ar
    29    10    11    2
    30    10    12    2
    31    10    13    1
    32    13    18    1
    33    13    14    1
    34    14    15    1
    35    15    16    1
    36    16    17    1
    37    17    18    1
@<TRIPOS>MOLECULE
ZINC30853436
 32 35 0 0 0
SMALL
GASTEIGER

@<TRIPOS>ATOM
      1 C          20.7835   38.6194   28.4137 C.2     1  UNL1        0.3219
      2 O          20.7179   39.8211   28.3075 O.2     1  UNL1       -0.2497
      3 O          19.9322   37.9696   29.2230 O.3     1  UNL1       -0.4399
      4 C          19.7676   38.4963   30.5661 C.3     1  UNL1        0.2716
      5 C          13.8047   39.0387   30.9881 C.ar    1  UNL1        0.0016
      6 C          14.0716   39.4359   32.2907 C.ar    1  UNL1        0.0016
      7 C          15.3696   39.4937   32.7516 C.ar    1  UNL1        0.0189
      8 C          16.4156   39.1523   31.9050 C.ar    1  UNL1        0.0833
      9 C          16.1448   38.7501   30.5862 C.ar    1  UNL1        0.0986
     10 C          14.8212   38.6989   30.1412 C.ar    1  UNL1        0.0206
     11 N          17.3408   38.4862   29.9998 N.ar    1  UNL1       -0.2270
     12 C          18.3010   38.6880   30.8543 C.ar    1  UNL1        0.1689
     13 N          17.7882   39.1027   32.0441 N.ar    1  UNL1       -0.2572
     14 C          18.5512   39.4354   33.2497 C.3     1  UNL1        0.4150
     15 F          19.3216   38.3323   33.6332 F       1  UNL1       -0.1725
     16 F          19.3919   40.5217   32.9846 F       1  UNL1       -0.1725
     17 C          21.8210   37.8499   27.6375 C.3     1  UNL1        0.1359
     18 C          23.1296   37.8770   28.3844 C.ar    1  UNL1       -0.0112
     19 C          23.2155   37.3177   29.6461 C.ar    1  UNL1       -0.0056
     20 C          24.4133   37.3405   30.3332 C.ar    1  UNL1       -0.0241
     21 C          25.5325   37.9261   29.7553 C.ar    1  UNL1       -0.1123
     22 C          25.4427   38.4871   28.4876 C.ar    1  UNL1       -0.0241
     23 C          24.2419   38.4607   27.8062 C.ar    1  UNL1       -0.0056
     24 N          26.7454   37.9514   30.4475 N.pl3   1  UNL1       -0.5354
     25 S          27.7219   36.6139   30.4562 S.O2    1  UNL1       -0.0520
     26 O          27.2514   35.7608   29.4217 O.2     1  UNL1       -0.1837
     27 O          29.0605   37.0886   30.5024 O.2     1  UNL1       -0.1837
     28 C          27.4345   35.7689   31.9754 C.ar    1  UNL1        0.1187
     29 C          26.7484   36.1860   33.0676 C.ar    1  UNL1        0.0241
     30 C          26.6507   35.3442   34.1596 C.ar    1  UNL1        0.0088
     31 C          27.2439   34.1266   34.1062 C.ar    1  UNL1        0.0367
     32 S          27.9649   34.1385   32.4729 S.2     1  UNL1       -0.0697
@<TRIPOS>UNITY_ATOM_ATTR
24 1
charge -1
@<TRIPOS>BOND
     1     5    10   ar
     2     5     6   ar
     3     6     7   ar
     4     7     8   ar
     5     8    13   ar
     6     8     9   ar
     7     9    10   ar
     8     9    11   ar
     9    11    12   ar
    10    12    13   ar
    11    12     4    1
    12    13    14    1
    13    14    15    1
    14    14    16    1
    15     4     3    1
    16     3     1    1
    17     1     2    2
    18     1    17    1
    19    17    18    1
    20    18    23   ar
    21    18    19   ar
    22    19    20   ar
    23    20    21   ar
    24    21    22   ar
    25    21    24    1
    26    22    23   ar
    27    24    25    1
    28    25    26    2
    29    25    27    2
    30    25    28    1
    31    28    32   ar
    32    28    29   ar
    33    29    30   ar
    34    30    31   ar
    35    31    32   ar
@<TRIPOS>MOLECULE
ZINC29897463
 35 38 0 0 0
SMALL
GASTEIGER

@<TRIPOS>ATOM
      1 N          24.1964   38.5050   27.6960 N.4     1  UNL1        0.2952
      2 H          23.6231   39.3482   27.6688 H       1  UNL1        0.2090
      3 C          23.8380   37.6779   26.5361 C.3     1  UNL1        0.0581
      4 C          23.1300   38.5434   25.4918 C.3     1  UNL1        0.0609
      5 C          25.1065   37.0779   25.9261 C.3     1  UNL1        0.0609
      6 C          25.6057   38.9150   27.6347 C.3     1  UNL1        0.2161
      7 C          25.7208   42.6273   27.6176 C.3     1  UNL1        0.0064
      8 C          25.5225   41.2953   26.9219 C.2     1  UNL1        0.2185
      9 O          25.2544   41.1118   25.7539 O.2     1  UNL1       -0.2758
     10 N          25.7056   40.3572   27.8721 N.am    1  UNL1       -0.1980
     11 C          25.9889   40.9057   29.0590 C.2     1  UNL1        0.1420
     12 O          26.1945   40.2618   30.0690 O.2     1  UNL1       -0.2965
     13 N          26.0205   42.2497   29.0095 N.am    1  UNL1       -0.6091
     14 C          26.8791   43.3756   27.0101 C.ar    1  UNL1       -0.0332
     15 C          26.7364   44.7057   26.6615 C.ar    1  UNL1       -0.0054
     16 C          27.7992   45.3922   26.1051 C.ar    1  UNL1       -0.0004
     17 C          29.0051   44.7491   25.8976 C.ar    1  UNL1       -0.0000
     18 C          29.1464   43.4176   26.2413 C.ar    1  UNL1       -0.0004
     19 C          28.0847   42.7321   26.8018 C.ar    1  UNL1       -0.0054
     20 C          24.4443   43.4682   27.5510 C.3     1  UNL1       -0.0074
     21 C          22.3783   43.3642   28.9521 C.3     1  UNL1       -0.0000
     22 C          23.8808   43.6527   28.9614 C.3     1  UNL1       -0.0008
     23 C          23.9067   37.8026   28.9531 C.3     1  UNL1        0.1949
     24 C          22.4265   37.8588   29.2304 C.ar    1  UNL1        0.2823
     25 N          21.4859   37.3283   28.5000 N.ar    1  UNL1       -0.1052
     26 N          20.3398   37.5704   29.0324 N.ar    1  UNL1       -0.1070
     27 C          20.5115   38.2694   30.1297 C.ar    1  UNL1        0.2498
     28 O          21.8376   38.4602   30.2785 O.2     1  UNL1       -0.4144
     29 C          19.4489   38.7520   31.0372 C.ar    1  UNL1        0.0552
     30 C          18.1061   38.5681   30.7042 C.ar    1  UNL1        0.0056
     31 C          17.1192   39.0167   31.5569 C.ar    1  UNL1        0.0115
     32 C          17.4584   39.6574   32.7367 C.ar    1  UNL1        0.0577
     33 C          18.7890   39.8470   33.0704 C.ar    1  UNL1        0.0115
     34 C          19.7847   39.3985   32.2278 C.ar    1  UNL1        0.0056
     35 CL         16.2106   40.2247   33.8022 Cl      1  UNL1       -0.0822
@<TRIPOS>UNITY_ATOM_ATTR
1 1
charge 1
13 1
charge -1
@<TRIPOS>BOND
     1    21    22    1
     2    22    20    1
     3    20     7    1
     4     7    13    1
     5     7     8    1
     6     7    14    1
     7     8     9    2
     8     8    10   am
     9    10    11   am
    10    10     6    1
    11    11    12    2
    12    11    13    1
    13     6     1    1
    14     1    23    1
    15     1     3    1
    16    23    24    1
    17    24    28   ar
    18    24    25   ar
    19    25    26   ar
    20    26    27   ar
    21    27    28   ar
    22    27    29    1
    23    29    34   ar
    24    29    30   ar
    25    30    31   ar
    26    31    32   ar
    27    32    33   ar
    28    32    35    1
    29    33    34   ar
    30     3     4    1
    31     3     5    1
    32    14    19   ar
    33    14    15   ar
    34    15    16   ar
    35    16    17   ar
    36    17    18   ar
    37    18    19   ar
    38     1     2    1
@<TRIPOS>MOLECULE
ZINC21994201
 34 37 0 0 0
SMALL
GASTEIGER

@<TRIPOS>ATOM
      1 C          23.0896   38.5945   28.4590 C.ar    1  UNL1        0.1764
      2 C          23.5625   39.9883   28.4359 C.ar    1  UNL1        0.0304
      3 C          22.7108   41.0694   28.2383 C.ar    1  UNL1        0.0019
      4 C          23.2285   42.3475   28.2364 C.ar    1  UNL1        0.0001
      5 C          24.5856   42.5651   28.4350 C.ar    1  UNL1        0.0002
      6 C          25.4466   41.5075   28.6382 C.ar    1  UNL1        0.0048
      7 C          24.9436   40.2103   28.6437 C.ar    1  UNL1        0.0593
      8 C          25.7895   39.0271   28.8528 C.ar    1  UNL1        0.2766
      9 O          26.9879   39.1422   29.0331 O.2     1  UNL1       -0.2655
     10 N          25.2073   37.8104   28.8405 N.ar    1  UNL1       -0.2119
     11 N          23.9543   37.6285   28.6568 N.ar    1  UNL1       -0.1599
     12 C          21.6612   38.2876   28.2561 C.2     1  UNL1        0.3613
     13 O          21.1882   38.3091   27.1371 O.2     1  UNL1       -0.2431
     14 O          20.8808   37.9833   29.3117 O.3     1  UNL1       -0.4342
     15 C          20.6118   39.0483   30.2614 C.3     1  UNL1        0.2930
     16 N          19.4499   39.1171   32.4440 N.am    1  UNL1       -0.2678
     17 C          19.5034   38.6249   31.1905 C.2     1  UNL1        0.2708
     18 O          18.6596   37.8411   30.8101 O.2     1  UNL1       -0.2708
     19 C          20.4691   40.0638   32.9034 C.3     1  UNL1        0.1203
     20 C          20.3483   40.8869   35.1989 C.2     1  UNL1       -0.0031
     21 C          20.6667   39.9075   34.3892 C.2     1  UNL1       -0.0047
     22 C          18.3724   38.7054   33.3472 C.3     1  UNL1        0.1270
     23 C          17.1972   39.6346   33.1835 C.ar    1  UNL1        0.0273
     24 C          16.9603   40.8256   33.7857 C.ar    1  UNL1        0.0044
     25 C          15.7984   41.5103   33.4831 C.ar    1  UNL1        0.0072
     26 C          14.9355   40.9760   32.5847 C.ar    1  UNL1        0.0352
     27 S          15.7560   39.4525   32.1457 S.2     1  UNL1       -0.0891
     28 C          26.0551   36.6340   29.0495 C.3     1  UNL1        0.1571
     29 C          25.8284   36.0915   30.4370 C.ar    1  UNL1        0.0022
     30 C          26.2750   34.8251   30.7654 C.ar    1  UNL1       -0.0023
     31 C          26.0714   34.3294   32.0397 C.ar    1  UNL1       -0.0003
     32 C          25.4118   35.0957   32.9823 C.ar    1  UNL1       -0.0000
     33 C          24.9606   36.3600   32.6522 C.ar    1  UNL1       -0.0003
     34 C          25.1688   36.8578   31.3796 C.ar    1  UNL1       -0.0023
@<TRIPOS>BOND
     1    20    21    2
     2    21    19    1
     3    19    16    1
     4    16    22    1
     5    16    17   am
     6    22    23    1
     7    23    27   ar
     8    23    24   ar
     9    24    25   ar
    10    25    26   ar
    11    26    27   ar
    12    17    18    2
    13    17    15    1
    14    15    14    1
    15    14    12    1
    16    12    13    2
    17    12     1    1
    18     1    11   ar
    19     1     2   ar
    20     2     7   ar
    21     2     3   ar
    22     3     4   ar
    23     4     5   ar
    24     5     6   ar
    25     6     7   ar
    26     7     8   ar
    27     8     9    2
    28     8    10   ar
    29    10    11   ar
    30    10    28    1
    31    28    29    1
    32    29    34   ar
    33    29    30   ar
    34    30    31   ar
    35    31    32   ar
    36    32    33   ar
    37    33    34   ar
@<TRIPOS>MOLECULE
ZINC09911694
 33 35 0 0 0
SMALL
GASTEIGER

@<TRIPOS>ATOM
      1 C          20.9977   38.7080   28.0035 C.2     1  UNL1        0.2310
      2 O          20.1872   39.5624   27.7146 O.2     1  UNL1       -0.2745
      3 N          20.9404   38.1042   29.2071 N.am    1  UNL1       -0.2326
      4 C          19.9555   38.4597   30.1142 C.ar    1  UNL1        0.1690
      5 N          18.6516   38.4361   29.9650 N.ar    1  UNL1       -0.2240
      6 C          17.8019   38.8151   30.9440 C.ar    1  UNL1        0.0850
      7 C          16.3882   38.8371   30.9133 C.ar    1  UNL1       -0.0076
      8 C          15.6706   39.2534   32.0038 C.ar    1  UNL1       -0.0243
      9 C          16.2983   39.6664   33.1703 C.ar    1  UNL1       -0.0040
     10 C          17.6794   39.6578   33.2356 C.ar    1  UNL1        0.0077
     11 C          18.4066   39.2420   32.1482 C.ar    1  UNL1        0.0494
     12 S          20.1370   39.0676   31.7850 S.2     1  UNL1       -0.0512
     13 C          14.1652   39.2634   31.9346 C.3     1  UNL1        0.0307
     14 C          15.6630   38.3973   29.6676 C.3     1  UNL1        0.0323
     15 C          22.0692   38.3214   27.0168 C.3     1  UNL1        0.0875
     16 C          23.2026   39.3477   27.0665 C.3     1  UNL1        0.0353
     17 C          23.8867   39.4189   25.6997 C.3     1  UNL1        0.1564
     18 S          25.5675   40.0714   25.8980 S.O2    1  UNL1        0.0087
     19 O          26.3904   39.1141   26.5505 O.2     1  UNL1       -0.1686
     20 O          25.9957   40.6946   24.6949 O.2     1  UNL1       -0.1686
     21 C          25.0208   44.5879   29.8613 C.3     1  UNL1        0.0310
     22 C          25.1576   43.4599   28.8713 C.ar    1  UNL1       -0.0218
     23 C          25.8363   42.3087   29.2246 C.ar    1  UNL1       -0.0029
     24 C          25.9618   41.2740   28.3166 C.ar    1  UNL1        0.0180
     25 C          25.4077   41.3902   27.0555 C.ar    1  UNL1        0.1056
     26 C          24.7331   42.5434   26.7005 C.ar    1  UNL1        0.0180
     27 C          24.6039   43.5763   27.6100 C.ar    1  UNL1       -0.0029
     28 C          21.9197   37.0721   29.5562 C.3     1  UNL1        0.1607
     29 C          23.1029   37.7161   30.2817 C.3     1  UNL1        0.1281
     30 C          25.3114   37.2759   29.3923 C.3     1  UNL1        0.1675
     31 C          24.7559   36.5917   31.6476 C.3     1  UNL1        0.1675
     32 N          24.2386   36.7703   30.2745 N.4     1  UNL1        0.2863
     33 H          23.9169   35.8689   29.9218 H       1  UNL1        0.2073
@<TRIPOS>UNITY_ATOM_ATTR
32 1
charge 1
@<TRIPOS>BOND
     1    21    22    1
     2    22    27   ar
     3    22    23   ar
     4    23    24   ar
     5    24    25   ar
     6    25    26   ar
     7    25    18    1
     8    26    27   ar
     9    18    19    2
    10    18    20    2
    11    18    17    1
    12    17    16    1
    13    16    15    1
    14    15     1    1
    15     1     2    2
    16     1     3   am
    17     3    28    1
    18     3     4    1
    19    28    29    1
    20    29    32    1
    21    30    32    1
    22    31    32    1
    23     4    12   ar
    24     4     5   ar
    25     5     6   ar
    26     6    11   ar
    27     6     7   ar
    28     7     8   ar
    29     7    14    1
    30     8     9   ar
    31     8    13    1
    32     9    10   ar
    33    10    11   ar
    34    11    12   ar
    35    32    33    1
@<TRIPOS>MOLECULE
ZINC18050550
 34 36 0 0 0
SMALL
GASTEIGER

@<TRIPOS>ATOM
      1 C          22.1236   39.2052   29.1120 C.2     1  UNL1        0.1292
      2 C          23.4821   38.8689   29.0839 C.ar    1  UNL1        0.1056
      3 N          24.5340   39.6529   28.6989 N.ar    1  UNL1       -0.2892
      4 C          25.7733   39.1876   28.7292 C.ar    1  UNL1        0.2673
      5 O          26.7283   39.8619   28.3931 O.2     1  UNL1       -0.2664
      6 C          25.9180   37.7921   29.2001 C.ar    1  UNL1        0.0884
      7 C          27.0392   37.0422   29.3422 C.2     1  UNL1        0.0304
      8 S          24.2169   37.3651   29.5369 S.2     1  UNL1       -0.0641
      9 C          26.9419   35.6599   29.8343 C.ar    1  UNL1        0.0820
     10 C          27.1231   34.5931   28.9484 C.ar    1  UNL1        0.0192
     11 C          27.0286   33.2989   29.4279 C.ar    1  UNL1        0.0031
     12 C          26.7563   33.1092   30.7758 C.ar    1  UNL1        0.0207
     13 C          26.5879   34.2106   31.5977 C.ar    1  UNL1        0.0988
     14 N          26.6873   35.4328   31.1204 N.ar    1  UNL1       -0.2438
     15 C          21.1807   38.3003   29.6601 C.2     1  UNL1        0.2070
     16 O          21.0790   37.1756   29.2032 O.2     1  UNL1       -0.2858
     17 C          18.7082   39.5097   32.8966 C.ar    1  UNL1       -0.0222
     18 C          18.1383   38.9558   31.7640 C.ar    1  UNL1       -0.0042
     19 C          18.9355   38.5610   30.7095 C.ar    1  UNL1        0.0029
     20 C          20.3198   38.7214   30.7871 C.ar    1  UNL1        0.0397
     21 C          20.8888   39.2755   31.9348 C.ar    1  UNL1        0.0029
     22 C          20.0799   39.6718   32.9796 C.ar    1  UNL1       -0.0042
     23 C          17.8312   39.9387   34.0446 C.3     1  UNL1        0.0264
     24 C          15.7083   41.1621   33.5560 C.3     1  UNL1        0.0004
     25 C          16.3614   39.7817   33.6500 C.3     1  UNL1        0.0047
     26 C          21.6859   40.4612   28.5815 C.1     1  UNL1        0.1057
     27 N          21.3386   41.4577   28.1608 N.1     1  UNL1       -0.1907
     28 C          24.2870   41.0245   28.2477 C.3     1  UNL1        0.1101
     29 C          25.1262   41.9947   29.0816 C.3     1  UNL1        0.0362
     30 C          24.6153   43.4215   28.8715 C.3     1  UNL1        0.1116
     31 C          25.7300   44.2797   28.3309 C.2     1  UNL1        0.3172
     32 O          26.8614   44.1175   28.7223 O.2     1  UNL1       -0.2501
     33 O          25.4657   45.2241   27.4144 O.3     1  UNL1       -0.4444
     34 C          24.6752   46.3618   27.8493 C.3     1  UNL1        0.2556
@<TRIPOS>BOND
     1    24    25    1
     2    25    23    1
     3    23    17    1
     4    17    22   ar
     5    17    18   ar
     6    18    19   ar
     7    19    20   ar
     8    20    21   ar
     9    20    15    1
    10    21    22   ar
    11    15    16    2
    12    15     1    1
    13     1     2    2
    14     1    26    1
    15     2     8   ar
    16     2     3   ar
    17     3     4   ar
    18     3    28    1
    19     4     5    2
    20     4     6   ar
    21     6     7    2
    22     6     8   ar
    23     7     9    1
    24     9    14   ar
    25     9    10   ar
    26    10    11   ar
    27    11    12   ar
    28    12    13   ar
    29    13    14   ar
    30    28    29    1
    31    29    30    1
    32    30    31    1
    33    31    32    2
    34    31    33    1
    35    33    34    1
    36    26    27    3
@<TRIPOS>MOLECULE
ZINC01151900
 29 31 0 0 0
SMALL
GASTEIGER

@<TRIPOS>ATOM
      1 C          12.2154   37.4193   27.5406 C.ar    1  UNL1        0.0866
      2 C          11.4428   37.6422   28.6751 C.ar    1  UNL1        0.0195
      3 C          12.0422   38.0265   29.8538 C.ar    1  UNL1        0.0080
      4 C          13.4277   38.2037   29.9059 C.ar    1  UNL1        0.0758
      5 C          14.2002   37.9842   28.7619 C.ar    1  UNL1        0.0080
      6 C          13.5942   37.5945   27.5884 C.ar    1  UNL1        0.0195
      7 C          10.9801   37.8184   25.4318 C.ar    1  UNL1        0.2152
      8 N          10.5579   37.0315   24.4655 N.ar    1  UNL1       -0.1011
      9 N          10.8661   35.8097   24.7121 N.ar    1  UNL1       -0.0218
     10 N          11.4969   35.7194   25.8323 N.ar    1  UNL1       -0.0382
     11 N          11.6038   37.0235   26.3469 N.ar    1  UNL1       -0.1862
     12 S          10.7834   39.5670   25.5221 S.3     1  UNL1       -0.0619
     13 C           9.9618   39.8731   23.9386 C.3     1  UNL1        0.1743
     14 C          10.9924   40.2305   22.8988 C.2     1  UNL1        0.3286
     15 O          12.1471   40.3832   23.2201 O.2     1  UNL1       -0.2491
     16 O          10.6275   40.3793   21.6156 O.3     1  UNL1       -0.4479
     17 C          10.6480   42.7530   21.0725 C.3     1  UNL1        0.0513
     18 C          11.3207   41.3975   20.8470 C.3     1  UNL1        0.2086
     19 C          14.0730   38.6218   31.1649 C.2     1  UNL1        0.3415
     20 O          13.4010   38.8039   32.1606 O.2     1  UNL1       -0.2449
     21 O          15.4075   38.8018   31.2106 O.3     1  UNL1       -0.4404
     22 C          15.9114   39.7523   32.1858 C.3     1  UNL1        0.2354
     23 C          17.3939   39.5492   32.3657 C.ar    1  UNL1        0.0218
     24 C          18.1166   38.8535   31.4142 C.ar    1  UNL1       -0.0007
     25 C          19.4773   38.6718   31.5759 C.ar    1  UNL1        0.0003
     26 C          20.1141   39.1759   32.6945 C.ar    1  UNL1        0.0067
     27 C          19.3905   39.8670   33.6493 C.ar    1  UNL1        0.0344
     28 C          18.0296   40.0535   33.4844 C.ar    1  UNL1        0.0060
     29 BR         20.2608   40.5562   35.1801 Br      1  UNL1       -0.0490
@<TRIPOS>BOND
     1    17    18    1
     2    18    16    1
     3    16    14    1
     4    14    15    2
     5    14    13    1
     6    13    12    1
     7    12     7    1
     8     7    11   ar
     9     7     8   ar
    10     8     9   ar
    11     9    10   ar
    12    10    11   ar
    13    11     1    1
    14     1     6   ar
    15     1     2   ar
    16     2     3   ar
    17     3     4   ar
    18     4     5   ar
    19     4    19    1
    20     5     6   ar
    21    19    20    2
    22    19    21    1
    23    21    22    1
    24    22    23    1
    25    23    28   ar
    26    23    24   ar
    27    24    25   ar
    28    25    26   ar
    29    26    27   ar
    30    27    28   ar
    31    27    29    1
@<TRIPOS>MOLECULE
ZINC11869039
 36 39 0 0 0
SMALL
GASTEIGER

@<TRIPOS>ATOM
      1 C          24.6912   42.2474   28.0316 C.ar    1  UNL1        0.1726
      2 C          24.6305   40.9671   28.5041 C.ar    1  UNL1        0.0443
      3 C          23.3874   40.3965   28.8022 C.ar    1  UNL1        0.0525
      4 C          22.2013   41.1481   28.6128 C.ar    1  UNL1        0.0887
      5 C          22.2866   42.4567   28.1225 C.ar    1  UNL1        0.0593
      6 C          23.5220   42.9971   27.8417 C.ar    1  UNL1        0.1739
      7 N          21.0224   40.5771   28.9058 N.ar    1  UNL1       -0.2252
      8 C          20.9735   39.3471   29.3586 C.ar    1  UNL1        0.1965
      9 N          22.0542   38.6076   29.5513 N.ar    1  UNL1       -0.2104
     10 C          23.2687   39.0746   29.2937 C.ar    1  UNL1        0.1347
     11 N          24.3865   38.2927   29.4997 N.pl3   1  UNL1       -0.2931
     12 C          24.6453   37.4287   28.3408 C.3     1  UNL1        0.0927
     13 C          25.9678   36.6854   28.5422 C.3     1  UNL1        0.0326
     14 C          25.8863   35.8459   29.8201 C.3     1  UNL1        0.1025
     15 C          25.5683   36.7630   31.0044 C.3     1  UNL1        0.0326
     16 C          24.2573   37.5041   30.7317 C.3     1  UNL1        0.0927
     17 C          27.2058   35.1573   30.0568 C.2     1  UNL1        0.3167
     18 O          27.7362   35.2237   31.1403 O.2     1  UNL1       -0.2501
     19 O          27.7916   34.4700   29.0637 O.3     1  UNL1       -0.4444
     20 C          27.2156   33.1808   28.7251 C.3     1  UNL1        0.2556
     21 C          26.5199   42.3994   26.5188 C.3     1  UNL1        0.2526
     22 O          25.8992   42.8006   27.7419 O.3     1  UNL1       -0.4684
     23 O          23.6081   44.2686   27.3711 O.3     1  UNL1       -0.4683
     24 C          24.0295   45.2748   28.2942 C.3     1  UNL1        0.2526
     25 C          19.6266   38.7492   29.6741 C.3     1  UNL1        0.1729
     26 N          19.4638   38.6890   31.1419 N.4     1  UNL1        0.2876
     27 H          19.9465   37.8628   31.4952 H       1  UNL1        0.2081
     28 C          18.0300   38.5918   31.4875 C.3     1  UNL1        0.0568
     29 C          17.2023   38.7971   30.2171 C.3     1  UNL1        0.0550
     30 C          15.7144   38.6787   30.5531 C.3     1  UNL1        0.0059
     31 C          15.3381   39.7442   31.5847 C.3     1  UNL1        0.0004
     32 C          16.1658   39.5389   32.8550 C.3     1  UNL1        0.0059
     33 C          17.6536   39.6573   32.5191 C.3     1  UNL1        0.0550
     34 C          20.0532   39.8926   31.7653 C.3     1  UNL1        0.1850
     35 C          20.5035   39.5491   33.1240 C.1     1  UNL1       -0.0174
     36 C          20.8626   39.2751   34.2077 C.1     1  UNL1       -0.0084
@<TRIPOS>UNITY_ATOM_ATTR
26 1
charge 1
@<TRIPOS>BOND
     1    21    22    1
     2    22     1    1
     3     1     6   ar
     4     1     2   ar
     5     2     3   ar
     6     3    10   ar
     7     3     4   ar
     8     4     5   ar
     9     4     7   ar
    10     5     6   ar
    11     6    23    1
    12    23    24    1
    13     7     8   ar
    14     8     9   ar
    15     8    25    1
    16     9    10   ar
    17    10    11    1
    18    11    16    1
    19    11    12    1
    20    12    13    1
    21    13    14    1
    22    14    15    1
    23    14    17    1
    24    15    16    1
    25    17    18    2
    26    17    19    1
    27    19    20    1
    28    25    26    1
    29    34    35    1
    30    34    26    1
    31    35    36    3
    32    28    33    1
    33    28    29    1
    34    28    26    1
    35    29    30    1
    36    30    31    1
    37    31    32    1
    38    32    33    1
    39    26    27    1
@<TRIPOS>MOLECULE
ZINC30436505
 35 37 0 0 0
SMALL
GASTEIGER

@<TRIPOS>ATOM
      1 C          13.3926   36.2088   27.7826 C.2     1  UNL1        0.2493
      2 O          13.8052   35.2107   27.2211 O.2     1  UNL1       -0.2699
      3 N          12.3328   36.8742   27.2820 N.am    1  UNL1       -0.2726
      4 C          11.8849   38.1406   27.8811 C.3     1  UNL1        0.1152
      5 C          11.7581   39.1853   26.7609 C.3     1  UNL1        0.1137
      6 N          10.8872   38.6574   25.7023 N.pl3   1  UNL1       -0.2897
      7 C          11.4709   37.4622   25.0787 C.3     1  UNL1        0.1137
      8 C          11.5897   36.3500   26.1261 C.3     1  UNL1        0.1152
      9 C          10.6141   39.6283   24.7543 C.ar    1  UNL1        0.1318
     10 C           9.9694   40.8030   25.1396 C.ar    1  UNL1        0.0345
     11 C           9.7053   41.7628   24.2009 C.ar    1  UNL1        0.0109
     12 C          10.0872   41.5223   22.8714 C.ar    1  UNL1        0.0948
     13 C          10.7247   40.3208   22.5560 C.ar    1  UNL1        0.1067
     14 N          10.9645   39.4258   23.4915 N.ar    1  UNL1       -0.2290
     15 C           9.8195   42.5241   21.8237 C.2     1  UNL1        0.3427
     16 O           9.2760   43.5724   22.1101 O.2     1  UNL1       -0.2448
     17 O          10.1775   42.2772   20.5482 O.3     1  UNL1       -0.4454
     18 C          11.2035   43.1295   19.9747 C.3     1  UNL1        0.2089
     19 C          12.3641   43.2657   20.9623 C.3     1  UNL1        0.0513
     20 C          14.6750   37.8810   29.0051 C.2     1  UNL1        0.0048
     21 C          14.0470   36.6861   29.0004 C.2     1  UNL1        0.0579
     22 C          17.3420   38.8487   31.4593 C.ar    1  UNL1        0.1722
     23 C          16.7297   38.4020   30.3049 C.ar    1  UNL1        0.0400
     24 C          15.3328   38.3607   30.2291 C.ar    1  UNL1        0.0034
     25 C          14.5641   38.7833   31.3195 C.ar    1  UNL1        0.0033
     26 C          15.1831   39.2328   32.4650 C.ar    1  UNL1        0.0400
     27 C          16.5691   39.2676   32.5416 C.ar    1  UNL1        0.1722
     28 O          18.6992   38.8854   31.5385 O.3     1  UNL1       -0.4724
     29 C          20.5971   39.3404   30.1132 C.3     1  UNL1        0.0512
     30 C          19.4283   38.3987   30.4100 C.3     1  UNL1        0.2057
     31 O          17.1737   39.7114   33.6740 O.3     1  UNL1       -0.4724
     32 C          17.7738   41.0072   33.6240 C.3     1  UNL1        0.2054
     33 C          19.1325   40.9676   34.3262 C.3     1  UNL1        0.0438
     34 C          19.0458   41.7327   35.6483 C.3     1  UNL1        0.0038
     35 C          19.5216   39.5140   34.6027 C.3     1  UNL1        0.0038
@<TRIPOS>BOND
     1    29    30    1
     2    30    28    1
     3    28    22    1
     4    22    27   ar
     5    22    23   ar
     6    23    24   ar
     7    24    25   ar
     8    24    20    1
     9    25    26   ar
    10    26    27   ar
    11    27    31    1
    12    31    32    1
    13    32    33    1
    14    33    34    1
    15    33    35    1
    16    20    21    2
    17    21     1    1
    18     1     2    2
    19     1     3   am
    20     3     8    1
    21     3     4    1
    22     4     5    1
    23     5     6    1
    24     6     7    1
    25     6     9    1
    26     7     8    1
    27     9    14   ar
    28     9    10   ar
    29    10    11   ar
    30    11    12   ar
    31    12    13   ar
    32    12    15    1
    33    13    14   ar
    34    15    16    2
    35    15    17    1
    36    17    18    1
    37    18    19    1
@<TRIPOS>MOLECULE
ZINC13505385
 36 39 0 0 0
SMALL
GASTEIGER

@<TRIPOS>ATOM
      1 C          11.6202   37.9673   27.9136 C.3     1  UNL1        0.1423
      2 N          12.6069   38.5221   28.8499 N.4     1  UNL1        0.2830
      3 C          13.9619   38.0552   28.5249 C.3     1  UNL1        0.1278
      4 C          14.9671   38.7163   29.4710 C.3     1  UNL1        0.1526
      5 N          14.6185   38.3864   30.8600 N.pl3   1  UNL1       -0.2973
      6 C          13.2635   38.8534   31.1851 C.3     1  UNL1        0.1526
      7 C          12.2584   38.1922   30.2389 C.3     1  UNL1        0.1278
      8 H          12.5923   39.5375   28.7541 H       1  UNL1        0.2074
      9 C          15.5584   38.9149   31.7519 C.ar    1  UNL1        0.0483
     10 C          15.1441   39.4312   32.9725 C.ar    1  UNL1        0.0176
     11 C          16.0731   39.9474   33.8547 C.ar    1  UNL1        0.0382
     12 C          17.4182   39.9609   33.5166 C.ar    1  UNL1        0.1388
     13 C          17.8323   39.4502   32.2953 C.ar    1  UNL1        0.0382
     14 C          16.9053   38.9285   31.4144 C.ar    1  UNL1        0.0176
     15 O          18.3316   40.4749   34.3832 O.3     1  UNL1       -0.4714
     16 C          19.5959   39.8133   34.4610 C.3     1  UNL1        0.2525
     17 C          11.2916   38.9958   26.8624 C.ar    1  UNL1        0.0711
     18 C          11.9652   38.9903   25.6561 C.ar    1  UNL1        0.0416
     19 C          11.6624   39.9364   24.6886 C.ar    1  UNL1        0.1388
     20 C          10.6874   40.8921   24.9341 C.ar    1  UNL1        0.0400
     21 C          10.0100   40.8942   26.1377 C.ar    1  UNL1        0.0399
     22 C          10.3128   39.9476   27.1055 C.ar    1  UNL1        0.1406
     23 O           9.6496   39.9529   28.2927 O.3     1  UNL1       -0.4715
     24 C           9.3875   41.2273   28.8836 C.3     1  UNL1        0.2525
     25 O          12.3253   39.9309   23.5013 O.3     1  UNL1       -0.4714
     26 C          12.4926   41.1896   22.8457 C.3     1  UNL1        0.2525
     27 N          11.5551   35.9212   26.3924 N.ar    1  UNL1       -0.2120
     28 C          12.1899   36.7383   27.2533 C.ar    1  UNL1        0.2149
     29 N          13.3979   36.2544   27.4101 N.ar    1  UNL1       -0.1065
     30 N          13.5014   35.1982   26.6795 N.ar    1  UNL1       -0.0228
     31 N          12.3908   34.9958   26.0608 N.ar    1  UNL1       -0.0430
     32 C          10.1758   36.0587   25.9184 C.3     1  UNL1        0.1308
     33 C          10.1727   36.2147   24.3964 C.3     1  UNL1        0.0265
     34 C           9.8697   37.8280   22.5130 C.3     1  UNL1        0.0001
     35 C           9.8096   37.6555   24.0321 C.3     1  UNL1        0.0020
     36 C           8.3946   37.9652   24.5249 C.3     1  UNL1        0.0001
@<TRIPOS>UNITY_ATOM_ATTR
2 1
charge 1
@<TRIPOS>BOND
     1    34    35    1
     2    35    36    1
     3    35    33    1
     4    33    32    1
     5    32    27    1
     6    27    31   ar
     7    27    28   ar
     8    28    29   ar
     9    28     1    1
    10    29    30   ar
    11    30    31   ar
    12     1    17    1
    13     1     2    1
    14    17    22   ar
    15    17    18   ar
    16    18    19   ar
    17    19    20   ar
    18    19    25    1
    19    20    21   ar
    20    21    22   ar
    21    22    23    1
    22    23    24    1
    23    25    26    1
    24     2     7    1
    25     2     3    1
    26     3     4    1
    27     4     5    1
    28     5     6    1
    29     5     9    1
    30     6     7    1
    31     9    14   ar
    32     9    10   ar
    33    10    11   ar
    34    11    12   ar
    35    12    13   ar
    36    12    15    1
    37    13    14   ar
    38    15    16    1
    39     2     8    1
@<TRIPOS>MOLECULE
ZINC22984755
 33 36 0 0 0
SMALL
GASTEIGER

@<TRIPOS>ATOM
      1 C          21.0262   38.6288   28.1071 C.2     1  UNL1        0.1970
      2 O          20.3424   38.3795   27.1362 O.2     1  UNL1       -0.2892
      3 C          22.4478   43.4650   28.8498 C.3     1  UNL1        0.0500
      4 C          22.4283   42.0031   28.4845 C.ar    1  UNL1        0.0372
      5 C          21.3774   41.1784   28.6288 C.ar    1  UNL1        0.0168
      6 C          21.8165   39.8612   28.1492 C.ar    1  UNL1        0.0494
      7 C          23.1266   40.0250   27.7403 C.ar    1  UNL1        0.0399
      8 N          23.4731   41.3078   27.9479 N.ar    1  UNL1       -0.3339
      9 C          24.0129   38.9524   27.1616 C.3     1  UNL1        0.0501
     10 C          24.7872   41.8784   27.6418 C.3     1  UNL1        0.1054
     11 C          25.6747   41.8111   28.8862 C.3     1  UNL1        0.0245
     12 C          27.1305   42.0632   28.4886 C.3     1  UNL1        0.0026
     13 C          27.1719   42.9013   27.2092 C.3     1  UNL1        0.0117
     14 C          27.3459   44.3775   27.5720 C.3     1  UNL1        0.1096
     15 C          26.4131   45.2138   26.7342 C.2     1  UNL1        0.3171
     16 O          26.7612   45.5971   25.6425 O.2     1  UNL1       -0.2501
     17 O          25.1957   45.5329   27.2010 O.3     1  UNL1       -0.4444
     18 C          25.0604   45.6869   28.6384 C.3     1  UNL1        0.2556
     19 C          21.0623   37.6704   29.2695 C.3     1  UNL1        0.1796
     20 N          20.6088   38.3563   30.4820 N.ar    1  UNL1       -0.2705
     21 C          21.5367   38.7455   31.3890 C.ar    1  UNL1        0.1816
     22 N          21.2296   39.3666   32.5067 N.ar    1  UNL1       -0.2186
     23 C          19.9433   39.6125   32.7354 C.ar    1  UNL1        0.1164
     24 C          18.9031   39.2469   31.8526 C.ar    1  UNL1        0.0762
     25 C          19.2816   38.5711   30.6439 C.ar    1  UNL1        0.2640
     26 O          18.4610   38.2132   29.8167 O.2     1  UNL1       -0.2669
     27 C          17.5570   39.5970   32.2686 C.ar    1  UNL1       -0.0136
     28 C          17.4355   40.2358   33.4560 C.ar    1  UNL1        0.0049
     29 S          19.0939   40.3982   34.0679 S.2     1  UNL1       -0.0725
     30 C          16.1718   40.7038   34.1090 C.3     1  UNL1        0.0327
     31 C          15.0482   40.6861   33.0629 C.3     1  UNL1        0.0055
     32 C          15.0847   39.3438   32.3271 C.3     1  UNL1        0.0050
     33 C          16.3216   39.2755   31.4315 C.3     1  UNL1        0.0268
@<TRIPOS>BOND
     1     3     4    1
     2     4     8   ar
     3     4     5   ar
     4     5     6   ar
     5     6     7   ar
     6     6     1    1
     7     7     8   ar
     8     7     9    1
     9     8    10    1
    10    10    11    1
    11    11    12    1
    12    12    13    1
    13    13    14    1
    14    14    15    1
    15    15    16    2
    16    15    17    1
    17    17    18    1
    18     1     2    2
    19     1    19    1
    20    19    20    1
    21    20    25   ar
    22    20    21   ar
    23    21    22   ar
    24    22    23   ar
    25    23    29   ar
    26    23    24   ar
    27    24    25   ar
    28    24    27   ar
    29    25    26    2
    30    27    33    1
    31    27    28   ar
    32    28    29   ar
    33    28    30    1
    34    30    31    1
    35    31    32    1
    36    32    33    1
@<TRIPOS>MOLECULE
ZINC22713295
 35 37 0 0 0
SMALL
GASTEIGER

@<TRIPOS>ATOM
      1 C          21.1755   38.5279   27.9526 C.2     1  UNL1        0.2182
      2 O          20.6206   38.2246   26.9169 O.2     1  UNL1       -0.2873
      3 C          22.4310   43.3872   28.8333 C.3     1  UNL1        0.0504
      4 C          22.4658   41.9337   28.4368 C.ar    1  UNL1        0.0415
      5 C          21.4400   41.0732   28.5424 C.ar    1  UNL1        0.0172
      6 C          21.9280   39.7811   28.0403 C.ar    1  UNL1        0.0515
      7 C          23.2439   39.9890   27.6735 C.ar    1  UNL1        0.0443
      8 N          23.5467   41.2808   27.9114 N.ar    1  UNL1       -0.3134
      9 C          24.1773   38.9525   27.1029 C.3     1  UNL1        0.0505
     10 C          24.7902   41.8684   27.6616 C.ar    1  UNL1        0.0634
     11 C          25.0453   42.4530   26.4258 C.ar    1  UNL1        0.0177
     12 C          26.2675   43.0371   26.1777 C.ar    1  UNL1        0.0079
     13 C          27.2557   43.0325   27.1661 C.ar    1  UNL1        0.0757
     14 C          26.9973   42.4392   28.4050 C.ar    1  UNL1        0.0079
     15 C          25.7709   41.8618   28.6475 C.ar    1  UNL1        0.0177
     16 C          28.5684   43.6517   26.9021 C.2     1  UNL1        0.3413
     17 O          29.5513   42.9528   26.7556 O.2     1  UNL1       -0.2449
     18 O          28.6773   44.9924   26.8235 O.3     1  UNL1       -0.4413
     19 C          29.8366   45.5199   26.1263 C.3     1  UNL1        0.2560
     20 C          21.0955   37.6119   29.1466 C.3     1  UNL1        0.2770
     21 O          19.7592   37.6690   29.7117 O.3     1  UNL1       -0.4364
     22 C          19.5685   38.5090   30.7487 C.2     1  UNL1        0.3514
     23 O          20.5188   39.0677   31.2609 O.2     1  UNL1       -0.2441
     24 C          18.2106   38.7494   31.2605 C.2     1  UNL1        0.1438
     25 C          17.1284   38.6438   30.4166 C.2     1  UNL1        0.0169
     26 C          15.7953   39.0444   30.8798 C.ar    1  UNL1        0.0039
     27 C          15.6218   40.2555   31.5627 C.ar    1  UNL1        0.0002
     28 C          14.3661   40.6293   31.9909 C.ar    1  UNL1        0.0031
     29 C          13.2770   39.8079   31.7586 C.ar    1  UNL1        0.0369
     30 C          13.4379   38.6023   31.0877 C.ar    1  UNL1        0.1387
     31 C          14.6912   38.2158   30.6470 C.ar    1  UNL1        0.0369
     32 O          12.3630   37.8011   30.8644 O.3     1  UNL1       -0.4714
     33 C          11.0798   38.4292   30.8393 C.3     1  UNL1        0.2525
     34 C          18.0145   39.0930   32.6366 C.1     1  UNL1        0.1070
     35 N          17.8589   39.3657   33.7285 N.1     1  UNL1       -0.1906
@<TRIPOS>BOND
     1     3     4    1
     2     4     8   ar
     3     4     5   ar
     4     5     6   ar
     5     6     7   ar
     6     6     1    1
     7     7     8   ar
     8     7     9    1
     9     8    10    1
    10    10    15   ar
    11    10    11   ar
    12    11    12   ar
    13    12    13   ar
    14    13    14   ar
    15    13    16    1
    16    14    15   ar
    17    16    17    2
    18    16    18    1
    19    18    19    1
    20     1     2    2
    21     1    20    1
    22    20    21    1
    23    21    22    1
    24    22    23    2
    25    22    24    1
    26    24    25    2
    27    24    34    1
    28    25    26    1
    29    26    31   ar
    30    26    27   ar
    31    27    28   ar
    32    28    29   ar
    33    29    30   ar
    34    30    31   ar
    35    30    32    1
    36    32    33    1
    37    34    35    3
@<TRIPOS>MOLECULE
ZINC10384997
 37 41 0 0 0
SMALL
GASTEIGER

@<TRIPOS>ATOM
      1 C          24.3852   37.7759   29.8050 C.ar    1  UNL1        0.0417
      2 C          24.6270   36.7697   30.7214 C.ar    1  UNL1        0.1020
      3 N          25.8918   36.9058   31.1595 N.ar    1  UNL1       -0.2281
      4 N          26.4884   38.0085   30.5421 N.ar    1  UNL1       -0.1619
      5 C          25.6228   38.5633   29.7200 C.ar    1  UNL1        0.1371
      6 C          25.8521   39.7504   28.8736 C.ar    1  UNL1        0.1646
      7 C          26.1032   41.0001   29.3351 C.ar    1  UNL1        0.0421
      8 C          26.2629   41.8457   28.1504 C.ar    1  UNL1        0.0376
      9 C          26.5311   43.2010   27.9509 C.ar    1  UNL1        0.0031
     10 C          26.6213   43.6937   26.6788 C.ar    1  UNL1        0.0002
     11 C          26.4470   42.8556   25.5868 C.ar    1  UNL1        0.0031
     12 C          26.1814   41.5142   25.7636 C.ar    1  UNL1        0.0375
     13 C          26.0858   40.9916   27.0472 C.ar    1  UNL1        0.1454
     14 O          25.8489   39.7533   27.5257 O.2     1  UNL1       -0.4519
     15 C          26.5143   36.0722   32.0971 C.ar    1  UNL1        0.0828
     16 C          25.8486   35.7173   33.2630 C.ar    1  UNL1        0.0191
     17 C          26.4632   34.8909   34.1832 C.ar    1  UNL1        0.0015
     18 C          27.7446   34.4261   33.9497 C.ar    1  UNL1        0.0001
     19 C          28.4123   34.7820   32.7922 C.ar    1  UNL1        0.0015
     20 C          27.8009   35.6035   31.8655 C.ar    1  UNL1        0.0191
     21 C          22.1798   37.0606   29.0368 C.2     1  UNL1        0.0820
     22 C          23.1394   38.0140   29.0689 C.2     1  UNL1        0.0099
     23 C          20.9777   37.2903   28.3265 C.2     1  UNL1        0.3419
     24 O          20.9635   37.2100   27.1124 O.2     1  UNL1       -0.2449
     25 O          19.8469   37.5984   28.9956 O.3     1  UNL1       -0.4353
     26 C          19.7541   38.9162   29.5406 C.3     1  UNL1        0.2927
     27 N          19.6430   39.8240   31.8388 N.am    1  UNL1       -0.2928
     28 C          19.3219   38.8345   30.9820 C.2     1  UNL1        0.2678
     29 O          18.6852   37.8783   31.3709 O.2     1  UNL1       -0.2710
     30 H          20.1597   40.6002   31.5231 H       1  UNL1        0.1504
     31 C          19.8139   38.4863   33.8792 C.3     1  UNL1        0.0353
     32 C          19.2228   39.7445   33.2401 C.3     1  UNL1        0.1363
     33 C          19.7201   40.9805   33.9924 C.3     1  UNL1        0.0301
     34 C          20.1610   40.7930   35.4455 C.3     1  UNL1        0.0027
     35 C          18.8475   41.5131   35.1307 C.3     1  UNL1        0.0027
     36 C          17.7536   39.6862   33.3092 C.1     1  UNL1        0.0896
     37 N          16.6198   39.6411   33.3625 N.1     1  UNL1       -0.1943
@<TRIPOS>BOND
     1    31    32    1
     2    32    36    1
     3    32    33    1
     4    32    27    1
     5    36    37    3
     6    33    35    1
     7    33    34    1
     8    34    35    1
     9    27    28   am
    10    28    29    2
    11    28    26    1
    12    26    25    1
    13    25    23    1
    14    23    24    2
    15    23    21    1
    16    21    22    2
    17    22     1    1
    18     1     5   ar
    19     1     2   ar
    20     2     3   ar
    21     3     4   ar
    22     3    15    1
    23     4     5   ar
    24     5     6    1
    25     6    14   ar
    26     6     7   ar
    27     7     8   ar
    28     8    13   ar
    29     8     9   ar
    30     9    10   ar
    31    10    11   ar
    32    11    12   ar
    33    12    13   ar
    34    13    14   ar
    35    15    20   ar
    36    15    16   ar
    37    16    17   ar
    38    17    18   ar
    39    18    19   ar
    40    19    20   ar
    41    27    30    1
@<TRIPOS>MOLECULE
ZINC23553071
 33 36 0 0 0
SMALL
GASTEIGER

@<TRIPOS>ATOM
      1 C          20.3785   37.9998   29.6373 C.ar    1  UNL1        0.2597
      2 N          20.8671   38.3942   30.8209 N.ar    1  UNL1       -0.2001
      3 C          19.8875   38.8393   31.5806 C.ar    1  UNL1        0.1715
      4 N          18.7238   38.7232   30.8734 N.ar    1  UNL1       -0.2101
      5 N          19.0736   38.1829   29.6252 N.ar    1  UNL1       -0.1374
      6 C          17.4399   39.0777   31.3048 C.ar    1  UNL1        0.0845
      7 C          16.3306   38.7396   30.5403 C.ar    1  UNL1        0.0192
      8 C          15.0653   39.0860   30.9712 C.ar    1  UNL1        0.0015
      9 C          14.9026   39.7779   32.1577 C.ar    1  UNL1        0.0039
     10 C          16.0048   40.1155   32.9214 C.ar    1  UNL1        0.0729
     11 C          17.2727   39.7677   32.4983 C.ar    1  UNL1        0.0231
     12 C          15.8224   40.8643   34.2164 C.3     1  UNL1        0.4186
     13 F          17.0446   41.4203   34.6097 F       1  UNL1       -0.1659
     14 F          14.8822   41.8845   34.0368 F       1  UNL1       -0.1659
     15 F          15.3713   39.9832   35.2050 F       1  UNL1       -0.1659
     16 C          20.0217   39.3647   32.9486 C.ar    1  UNL1        0.0653
     17 C          20.3217   40.6390   33.3601 C.ar    1  UNL1        0.0101
     18 C          20.3937   40.8978   34.7090 C.ar    1  UNL1        0.0076
     19 C          20.1666   39.8885   35.5907 C.ar    1  UNL1        0.0355
     20 S          19.8288   38.5119   34.5053 S.2     1  UNL1       -0.0833
     21 C          21.1762   37.4483   28.5226 C.2     1  UNL1        0.3798
     22 O          20.6340   36.7986   27.6510 O.2     1  UNL1       -0.2413
     23 O          22.5048   37.6659   28.4728 O.3     1  UNL1       -0.4348
     24 C          22.9409   38.9985   28.0956 C.3     1  UNL1        0.2753
     25 N          24.8710   40.5012   28.8181 N.ar    1  UNL1       -0.2138
     26 C          24.2556   39.3052   28.7654 C.ar    1  UNL1        0.2053
     27 N          25.0246   38.4579   29.4047 N.ar    1  UNL1       -0.1088
     28 N          26.0559   39.1011   29.8323 N.ar    1  UNL1       -0.0229
     29 N          25.9647   40.3366   29.4824 N.ar    1  UNL1       -0.0431
     30 C          24.3879   41.7548   28.2340 C.3     1  UNL1        0.1307
     31 C          25.1262   42.9328   28.8727 C.3     1  UNL1        0.0265
     32 C          22.7068   43.5558   28.8923 C.3     1  UNL1        0.0001
     33 C          24.1189   44.0191   29.2553 C.3     1  UNL1        0.0021
@<TRIPOS>BOND
     1    32    33    1
     2    33    31    1
     3    31    30    1
     4    30    25    1
     5    25    29   ar
     6    25    26   ar
     7    26    27   ar
     8    26    24    1
     9    27    28   ar
    10    28    29   ar
    11    24    23    1
    12    23    21    1
    13    21    22    2
    14    21     1    1
    15     1     5   ar
    16     1     2   ar
    17     2     3   ar
    18     3     4   ar
    19     3    16    1
    20     4     5   ar
    21     4     6    1
    22     6    11   ar
    23     6     7   ar
    24     7     8   ar
    25     8     9   ar
    26     9    10   ar
    27    10    11   ar
    28    10    12    1
    29    12    13    1
    30    12    14    1
    31    12    15    1
    32    16    20   ar
    33    16    17   ar
    34    17    18   ar
    35    18    19   ar
    36    19    20   ar
@<TRIPOS>MOLECULE
ZINC29695010
 34 37 0 0 0
SMALL
GASTEIGER

@<TRIPOS>ATOM
      1 C          23.0434   39.1651   28.6277 C.ar    1  UNL1        0.0757
      2 C          22.6532   40.3350   27.9744 C.ar    1  UNL1        0.0064
      3 C          23.5613   41.3565   27.7897 C.ar    1  UNL1        0.0002
      4 C          24.8619   41.2301   28.2497 C.ar    1  UNL1        0.0000
      5 C          25.2658   40.0806   28.8983 C.ar    1  UNL1        0.0002
      6 C          24.3631   39.0400   29.0985 C.ar    1  UNL1        0.0062
      7 C          24.7910   37.8063   29.7989 C.ar    1  UNL1        0.0002
      8 C          24.3966   37.5770   31.1167 C.ar    1  UNL1       -0.0003
      9 C          24.7939   36.4238   31.7620 C.ar    1  UNL1       -0.0023
     10 C          25.5909   35.5014   31.1080 C.ar    1  UNL1        0.0021
     11 C          25.9901   35.7262   29.8027 C.ar    1  UNL1       -0.0023
     12 C          25.5944   36.8730   29.1450 C.ar    1  UNL1       -0.0003
     13 C          26.0265   34.2471   31.8206 C.3     1  UNL1        0.1538
     14 N          26.9453   34.5966   32.9069 N.ar    1  UNL1       -0.2449
     15 C          28.2288   34.9887   32.7659 C.ar    1  UNL1        0.0971
     16 C          28.7277   35.2197   34.0023 C.ar    1  UNL1        0.0427
     17 C          27.7173   34.9507   34.9313 C.ar    1  UNL1        0.1217
     18 N          26.6484   34.5770   34.2758 N.ar    1  UNL1       -0.1673
     19 C          22.0767   38.0693   28.8286 C.2     1  UNL1        0.3415
     20 O          21.9379   37.2173   27.9736 O.2     1  UNL1       -0.2449
     21 O          21.3475   38.0131   29.9604 O.3     1  UNL1       -0.4404
     22 C          19.9321   38.3170   29.8484 C.3     1  UNL1        0.2354
     23 C          17.6239   39.5985   32.5470 C.ar    1  UNL1        0.1220
     24 C          18.5215   39.9189   33.5485 C.ar    1  UNL1        0.0199
     25 C          19.8750   39.7175   33.3539 C.ar    1  UNL1        0.0012
     26 C          20.3312   39.1955   32.1577 C.ar    1  UNL1       -0.0006
     27 C          19.4343   38.8801   31.1546 C.ar    1  UNL1        0.0226
     28 C          18.0800   39.0762   31.3514 C.ar    1  UNL1        0.0192
     29 S          15.8985   39.8552   32.7951 S.O2    1  UNL1        0.0634
     30 O          15.5327   39.0855   33.9322 O.2     1  UNL1       -0.1528
     31 O          15.6820   41.2577   32.7228 O.2     1  UNL1       -0.1528
     32 C          13.7070   38.7930   31.6187 C.3     1  UNL1        0.1150
     33 N          15.1128   39.1877   31.4991 N.3     1  UNL1       -0.1526
     34 C          15.8234   38.9919   30.2331 C.3     1  UNL1        0.1150
@<TRIPOS>BOND
     1    32    33    1
     2    33    34    1
     3    33    29    1
     4    29    30    2
     5    29    31    2
     6    29    23    1
     7    23    28   ar
     8    23    24   ar
     9    24    25   ar
    10    25    26   ar
    11    26    27   ar
    12    27    28   ar
    13    27    22    1
    14    22    21    1
    15    21    19    1
    16    19    20    2
    17    19     1    1
    18     1     6   ar
    19     1     2   ar
    20     2     3   ar
    21     3     4   ar
    22     4     5   ar
    23     5     6   ar
    24     6     7    1
    25     7    12   ar
    26     7     8   ar
    27     8     9   ar
    28     9    10   ar
    29    10    11   ar
    30    10    13    1
    31    11    12   ar
    32    13    14    1
    33    14    18   ar
    34    14    15   ar
    35    15    16   ar
    36    16    17   ar
    37    17    18   ar
@<TRIPOS>MOLECULE
ZINC21475980
 33 37 0 0 0
SMALL
GASTEIGER

@<TRIPOS>ATOM
      1 S          23.1474   38.7391   26.7836 S.3     1  UNL1       -0.0672
      2 C          24.1499   40.1879   26.7663 C.ar    1  UNL1        0.1747
      3 N          23.8679   41.1833   27.5822 N.ar    1  UNL1       -0.2157
      4 C          24.6056   42.2868   27.5916 C.ar    1  UNL1        0.1171
      5 C          25.7152   42.4508   26.7408 C.ar    1  UNL1        0.0766
      6 C          26.4116   43.7181   26.8795 C.ar    1  UNL1       -0.0094
      7 C          25.9693   44.6141   27.7740 C.ar    1  UNL1        0.0328
      8 S          24.5600   43.8058   28.5080 S.2     1  UNL1       -0.0676
      9 C          25.9967   41.3539   25.8667 C.ar    1  UNL1        0.2642
     10 O          26.9383   41.4059   25.0943 O.2     1  UNL1       -0.2669
     11 N          25.2116   40.2618   25.9117 N.ar    1  UNL1       -0.2714
     12 C          27.6169   44.0227   26.0278 C.3     1  UNL1        0.0231
     13 C          28.4414   45.2604   26.3871 C.3     1  UNL1        0.0047
     14 C          27.5574   45.2661   25.1383 C.3     1  UNL1        0.0047
     15 C          25.4988   39.1332   25.0230 C.3     1  UNL1        0.1374
     16 C          26.5965   38.2906   25.6197 C.2     1  UNL1       -0.0016
     17 C          26.3338   37.0817   26.0503 C.2     1  UNL1       -0.0029
     18 C          23.2806   38.2857   28.5309 C.3     1  UNL1        0.1527
     19 C          20.1429   38.3473   30.2834 C.ar    1  UNL1        0.2034
     20 N          21.3980   38.8208   30.1121 N.ar    1  UNL1       -0.1900
     21 C          21.9005   38.1335   29.1169 C.ar    1  UNL1        0.2480
     22 O          20.9575   37.2756   28.7150 O.2     1  UNL1       -0.3361
     23 N          19.9590   37.4093   29.3905 N.ar    1  UNL1       -0.0560
     24 C          17.3144   39.6628   33.1796 C.ar    1  UNL1        0.1724
     25 C          16.8802   39.1949   31.9481 C.ar    1  UNL1        0.0401
     26 C          17.7954   38.7734   31.0057 C.ar    1  UNL1        0.0065
     27 C          19.1587   38.8062   31.2941 C.ar    1  UNL1        0.0423
     28 C          19.5963   39.2761   32.5312 C.ar    1  UNL1        0.0432
     29 C          18.6758   39.7031   33.4709 C.ar    1  UNL1        0.1725
     30 C          15.8208   41.3683   33.8965 C.3     1  UNL1        0.2526
     31 O          16.4100   40.0828   34.1032 O.3     1  UNL1       -0.4684
     32 O          19.0996   40.1617   34.6789 O.3     1  UNL1       -0.4684
     33 C          20.5070   40.3445   34.8461 C.3     1  UNL1        0.2526
@<TRIPOS>BOND
     1    30    31    1
     2    31    24    1
     3    24    29   ar
     4    24    25   ar
     5    25    26   ar
     6    26    27   ar
     7    27    28   ar
     8    27    19    1
     9    28    29   ar
    10    29    32    1
    11    32    33    1
    12    19    23   ar
    13    19    20   ar
    14    20    21   ar
    15    21    22   ar
    16    21    18    1
    17    22    23   ar
    18    18     1    1
    19     1     2    1
    20     2    11   ar
    21     2     3   ar
    22     3     4   ar
    23     4     8   ar
    24     4     5   ar
    25     5     6   ar
    26     5     9   ar
    27     6     7   ar
    28     6    12    1
    29     7     8   ar
    30    12    14    1
    31    12    13    1
    32    13    14    1
    33     9    10    2
    34     9    11   ar
    35    11    15    1
    36    15    16    1
    37    16    17    2
@<TRIPOS>MOLECULE
ZINC24952255
 34 36 0 0 0
SMALL
GASTEIGER

@<TRIPOS>ATOM
      1 C          22.2292   37.5389   28.5578 C.2     1  UNL1        0.0834
      2 C          23.1991   38.4033   28.1751 C.2     1  UNL1        0.0263
      3 C          24.6037   38.1063   28.4706 C.ar    1  UNL1        0.0900
      4 C          25.6084   38.9656   28.0624 C.ar    1  UNL1        0.0573
      5 S          27.0236   38.1536   28.6564 S.2     1  UNL1       -0.0503
      6 C          26.2072   36.7491   29.3965 C.ar    1  UNL1        0.1727
      7 N          24.9412   36.9980   29.1343 N.ar    1  UNL1       -0.2234
      8 N          26.7645   35.6689   30.0701 N.am    1  UNL1       -0.2147
      9 C          27.1687   34.5821   29.3832 C.2     1  UNL1        0.2351
     10 O          27.0460   34.5468   28.1772 O.2     1  UNL1       -0.2741
     11 C          27.7731   33.4107   30.1136 C.3     1  UNL1        0.0956
     12 C          26.9011   35.7073   31.4648 C.ar    1  UNL1        0.0873
     13 C          28.0260   36.2840   32.0381 C.ar    1  UNL1        0.0176
     14 C          28.1579   36.3205   33.4127 C.ar    1  UNL1        0.0014
     15 C          27.1708   35.7837   34.2189 C.ar    1  UNL1        0.0024
     16 C          26.0483   35.2085   33.6527 C.ar    1  UNL1        0.0309
     17 C          25.9073   35.1729   32.2772 C.ar    1  UNL1        0.1541
     18 F          24.8078   34.6159   31.7239 F       1  UNL1       -0.2028
     19 C          20.8743   37.8253   28.2728 C.2     1  UNL1        0.3419
     20 O          20.5673   38.3076   27.1984 O.2     1  UNL1       -0.2449
     21 O          19.9213   37.5639   29.1922 O.3     1  UNL1       -0.4353
     22 C          20.0686   38.1809   30.4727 C.3     1  UNL1        0.2933
     23 N          18.5816   39.2523   32.1338 N.am    1  UNL1       -0.2573
     24 C          18.7716   38.8405   30.8647 C.2     1  UNL1        0.2739
     25 O          17.8986   39.0008   30.0380 O.2     1  UNL1       -0.2705
     26 C          17.3328   39.7431   32.5306 C.ar    1  UNL1        0.0539
     27 C          17.2419   40.9603   33.1930 C.ar    1  UNL1        0.0149
     28 C          16.0072   41.4447   33.5782 C.ar    1  UNL1        0.0013
     29 C          14.8632   40.7139   33.3147 C.ar    1  UNL1        0.0001
     30 C          14.9510   39.4986   32.6607 C.ar    1  UNL1        0.0013
     31 C          16.1821   39.0114   32.2678 C.ar    1  UNL1        0.0149
     32 C          20.2181   40.5954   33.3582 C.3     1  UNL1        0.0219
     33 C          19.6826   39.1860   33.0980 C.3     1  UNL1        0.0800
     34 C          19.1762   38.5826   34.4096 C.3     1  UNL1        0.0219
@<TRIPOS>BOND
     1    32    33    1
     2    33    34    1
     3    33    23    1
     4    23    26    1
     5    23    24   am
     6    26    31   ar
     7    26    27   ar
     8    27    28   ar
     9    28    29   ar
    10    29    30   ar
    11    30    31   ar
    12    24    25    2
    13    24    22    1
    14    22    21    1
    15    21    19    1
    16    19    20    2
    17    19     1    1
    18     1     2    2
    19     2     3    1
    20     3     7   ar
    21     3     4   ar
    22     4     5   ar
    23     5     6   ar
    24     6     7   ar
    25     6     8    1
    26     8    12    1
    27     8     9   am
    28    12    17   ar
    29    12    13   ar
    30    13    14   ar
    31    14    15   ar
    32    15    16   ar
    33    16    17   ar
    34    17    18    1
    35     9    10    2
    36     9    11    1
@<TRIPOS>MOLECULE
ZINC17219322
 32 34 0 0 0
SMALL
GASTEIGER

@<TRIPOS>ATOM
      1 C          22.2452   49.3348   22.1030 C.2     1  UNL1        0.0880
      2 C          23.3507   49.3970   22.8028 C.2     1  UNL1        0.1097
      3 S          23.7533   50.4576   24.1330 S.3     1  UNL1       -0.0728
      4 C          22.3235   50.2917   25.1558 C.2     1  UNL1        0.0748
      5 C          21.1091   50.6354   24.6281 C.2     1  UNL1        0.1405
      6 N          20.9025   50.9662   23.2867 N.pl3   1  UNL1       -0.2736
      7 C          20.8962   49.9246   22.2638 C.3     1  UNL1        0.1293
      8 C          20.3904   50.2928   20.8864 C.ar    1  UNL1        0.0004
      9 C          20.2371   49.3468   19.9024 C.ar    1  UNL1       -0.0023
     10 C          19.7684   49.7240   18.6540 C.ar    1  UNL1       -0.0003
     11 C          19.4551   51.0472   18.3961 C.ar    1  UNL1       -0.0000
     12 C          19.6065   52.0055   19.3779 C.ar    1  UNL1       -0.0002
     13 C          20.0784   51.6332   20.6373 C.ar    1  UNL1       -0.0008
     14 C          20.2803   52.6305   21.7001 C.2     1  UNL1        0.0159
     15 C          20.6608   52.2798   22.9269 C.2     1  UNL1        0.0660
     16 C          22.3698   48.5055   20.9059 C.2     1  UNL1        0.3398
     17 O          21.8575   47.4027   20.8740 O.2     1  UNL1       -0.2452
     18 O          23.0531   48.9631   19.8361 O.3     1  UNL1       -0.4456
     19 C          23.1442   48.6593   17.4403 C.3     1  UNL1        0.0513
     20 C          23.3638   48.0168   18.8115 C.3     1  UNL1        0.2089
     21 C          20.0050   50.6610   25.4959 C.2     1  UNL1        0.3561
     22 O          19.0002   50.0277   25.2225 O.2     1  UNL1       -0.2434
     23 O          20.0567   51.3879   26.6340 O.3     1  UNL1       -0.4446
     24 C          18.9727   51.2335   27.5522 C.3     1  UNL1        0.2089
     25 C          19.4448   50.4350   28.7690 C.3     1  UNL1        0.0513
     26 S          22.4572   49.6994   26.8099 S.3     1  UNL1       -0.1049
     27 C          24.0802   48.9025   26.7282 C.3     1  UNL1        0.0747
     28 C          24.4070   48.4341   22.4131 C.2     1  UNL1        0.3473
     29 O          24.3579   47.2869   22.8072 O.2     1  UNL1       -0.2443
     30 O          25.4218   48.8315   21.6216 O.3     1  UNL1       -0.4451
     31 C          26.3347   47.8037   21.1543 C.3     1  UNL1        0.2089
     32 C          26.9611   48.2422   19.8291 C.3     1  UNL1        0.0513
@<TRIPOS>BOND
     1    19    20    1
     2    20    18    1
     3    18    16    1
     4    16    17    2
     5    16     1    1
     6     1     7    1
     7     1     2    2
     8     2     3    1
     9     2    28    1
    10     3     4    1
    11     4     5    2
    12     4    26    1
    13     5     6    1
    14     5    21    1
    15     6    15    1
    16     6     7    1
    17     7     8    1
    18     8    13   ar
    19     8     9   ar
    20     9    10   ar
    21    10    11   ar
    22    11    12   ar
    23    12    13   ar
    24    13    14    1
    25    14    15    2
    26    21    22    2
    27    21    23    1
    28    23    24    1
    29    24    25    1
    30    26    27    1
    31    28    29    2
    32    28    30    1
    33    30    31    1
    34    31    32    1
@<TRIPOS>MOLECULE
ZINC30791002
 33 35 0 0 0
SMALL
GASTEIGER

@<TRIPOS>ATOM
      1 C          13.6220   37.8827   29.1587 C.ar    1  UNL1        0.1053
      2 C          13.0198   38.2055   30.3666 C.ar    1  UNL1        0.0137
      3 C          13.7880   38.7416   31.3603 C.ar    1  UNL1        0.0137
      4 C          15.1406   38.9421   31.1229 C.ar    1  UNL1        0.1053
      5 S          15.3198   38.3537   29.4470 S.2     1  UNL1       -0.0741
      6 C          13.0161   37.3062   27.9492 C.2     1  UNL1        0.3477
      7 O          13.6847   36.6173   27.2038 O.2     1  UNL1       -0.2443
      8 O          11.7190   37.5418   27.6671 O.3     1  UNL1       -0.4367
      9 C          11.2591   37.1882   26.3360 C.3     1  UNL1        0.2723
     10 C           9.7715   41.8103   24.8024 C.3     1  UNL1        0.0345
     11 C          10.4238   40.4525   24.8484 C.ar    1  UNL1        0.0220
     12 C          10.3323   39.5142   25.8875 C.ar    1  UNL1        0.0358
     13 C          11.0684   38.4414   25.5211 C.ar    1  UNL1        0.1669
     14 O          11.5956   38.6729   24.3120 O.2     1  UNL1       -0.4478
     15 C          11.2145   39.8945   23.8838 C.ar    1  UNL1        0.2162
     16 C          11.5834   40.5134   22.6087 C.2     1  UNL1        0.3761
     17 O          12.7219   40.9010   22.4276 O.2     1  UNL1       -0.2414
     18 O          10.6603   40.6538   21.6350 O.3     1  UNL1       -0.4392
     19 C          10.9928   41.5402   20.5342 C.3     1  UNL1        0.2561
     20 C          16.1640   39.4967   32.0214 C.2     1  UNL1        0.3477
     21 O          15.9866   40.5757   32.5520 O.2     1  UNL1       -0.2443
     22 O          17.2991   38.8083   32.2568 O.3     1  UNL1       -0.4367
     23 C          18.5264   39.5770   32.3622 C.3     1  UNL1        0.2723
     24 C          19.5335   39.0537   31.3707 C.ar    1  UNL1        0.1669
     25 C          20.8751   39.0586   31.5347 C.ar    1  UNL1        0.0358
     26 C          21.4341   38.4816   30.3844 C.ar    1  UNL1        0.0220
     27 C          20.3924   38.1571   29.5619 C.ar    1  UNL1        0.2162
     28 O          19.2467   38.5128   30.1797 O.2     1  UNL1       -0.4478
     29 C          22.8998   38.2667   30.1071 C.3     1  UNL1        0.0345
     30 C          20.5003   37.5330   28.2412 C.2     1  UNL1        0.3761
     31 O          20.3644   36.3301   28.1241 O.2     1  UNL1       -0.2414
     32 O          20.7502   38.2925   27.1548 O.3     1  UNL1       -0.4392
     33 C          21.6898   37.7633   26.1825 C.3     1  UNL1        0.2561
@<TRIPOS>BOND
     1    10    11    1
     2    11    15   ar
     3    11    12   ar
     4    12    13   ar
     5    13    14   ar
     6    13     9    1
     7    14    15   ar
     8    15    16    1
     9    16    17    2
    10    16    18    1
    11    18    19    1
    12     9     8    1
    13     8     6    1
    14     6     7    2
    15     6     1    1
    16     1     5   ar
    17     1     2   ar
    18     2     3   ar
    19     3     4   ar
    20     4     5   ar
    21     4    20    1
    22    20    21    2
    23    20    22    1
    24    22    23    1
    25    23    24    1
    26    24    28   ar
    27    24    25   ar
    28    25    26   ar
    29    26    27   ar
    30    26    29    1
    31    27    28   ar
    32    27    30    1
    33    30    31    2
    34    30    32    1
    35    32    33    1
@<TRIPOS>MOLECULE
ZINC17144012
 34 37 0 0 0
SMALL
GASTEIGER

@<TRIPOS>ATOM
      1 C          18.8471   39.0943   31.0054 C.ar    1  UNL1        0.1597
      2 C          17.8768   38.6776   30.1121 C.ar    1  UNL1        0.0466
      3 C          16.6633   38.7536   30.8197 C.ar    1  UNL1        0.1030
      4 N          16.9358   39.1860   32.0336 N.ar    1  UNL1       -0.1649
      5 N          18.1955   39.3930   32.1727 N.ar    1  UNL1       -0.2233
      6 C          18.8107   39.8543   33.3420 C.ar    1  UNL1        0.0830
      7 C          19.4990   38.9692   34.1619 C.ar    1  UNL1        0.0192
      8 C          20.1100   39.4286   35.3121 C.ar    1  UNL1        0.0015
      9 C          20.0268   40.7660   35.6541 C.ar    1  UNL1        0.0001
     10 C          19.3378   41.6488   34.8427 C.ar    1  UNL1        0.0015
     11 C          18.7296   41.1970   33.6881 C.ar    1  UNL1        0.0192
     12 C          15.3190   38.4095   30.2933 C.ar    1  UNL1        0.0196
     13 C          15.1885   37.8525   29.0226 C.ar    1  UNL1        0.0047
     14 C          13.9385   37.5279   28.5385 C.ar    1  UNL1        0.0369
     15 C          12.8100   37.7666   29.3110 C.ar    1  UNL1        0.1387
     16 C          12.9365   38.3272   30.5747 C.ar    1  UNL1        0.0369
     17 C          14.1845   38.6481   31.0664 C.ar    1  UNL1        0.0047
     18 O          11.5792   37.4515   28.8291 O.3     1  UNL1       -0.4714
     19 C          11.5118   36.9754   27.4833 C.3     1  UNL1        0.2525
     20 C          20.2910   39.1972   30.7521 C.2     1  UNL1        0.3596
     21 O          21.0557   38.4013   31.2614 O.2     1  UNL1       -0.2432
     22 O          20.7675   40.1744   29.9547 O.3     1  UNL1       -0.4393
     23 C          20.7884   39.9090   28.5274 C.3     1  UNL1        0.2379
     24 C          22.1946   39.5785   28.0983 C.2     1  UNL1        0.0571
     25 O          23.0433   40.4377   28.0975 O.2     1  UNL1       -0.3286
     26 C          22.5419   38.1760   27.6701 C.2     1  UNL1       -0.0999
     27 C          24.7860   36.2455   31.7029 C.3     1  UNL1        0.0525
     28 C          24.8061   36.7909   30.2983 C.ar    1  UNL1        0.0629
     29 C          25.9689   36.8793   29.6034 C.ar    1  UNL1        0.0485
     30 S          25.3791   37.5664   28.0628 S.2     1  UNL1       -0.1048
     31 C          23.6997   37.6718   28.4925 C.ar    1  UNL1       -0.0497
     32 N          23.6965   37.1940   29.7154 N.ar    1  UNL1       -0.2804
     33 C          21.3774   37.2986   27.8727 C.1     1  UNL1       -0.1066
     34 N          20.4787   36.6216   28.0291 N.1     1  UNL1       -0.2342
@<TRIPOS>UNITY_ATOM_ATTR
26 1
charge -1
@<TRIPOS>BOND
     1    27    28    1
     2    28    32   ar
     3    28    29   ar
     4    29    30   ar
     5    30    31   ar
     6    31    32   ar
     7    31    26    1
     8    26    33    1
     9    26    24    1
    10    33    34    3
    11    24    25    2
    12    24    23    1
    13    23    22    1
    14    22    20    1
    15    20    21    2
    16    20     1    1
    17     1     5   ar
    18     1     2   ar
    19     2     3   ar
    20     3     4   ar
    21     3    12    1
    22     4     5   ar
    23     5     6    1
    24     6    11   ar
    25     6     7   ar
    26     7     8   ar
    27     8     9   ar
    28     9    10   ar
    29    10    11   ar
    30    12    17   ar
    31    12    13   ar
    32    13    14   ar
    33    14    15   ar
    34    15    16   ar
    35    15    18    1
    36    16    17   ar
    37    18    19    1
@<TRIPOS>MOLECULE
ZINC26231067
 33 36 0 0 0
SMALL
GASTEIGER

@<TRIPOS>ATOM
      1 N          14.6305   38.4529   30.7973 N.am    1  UNL1       -0.2313
      2 C          15.1710   38.1238   29.6072 C.2     1  UNL1        0.2757
      3 O          16.2036   38.6468   29.2449 O.2     1  UNL1       -0.2704
      4 C          15.2562   39.3913   31.6089 C.ar    1  UNL1        0.1692
      5 N          16.3747   39.2832   32.3013 N.ar    1  UNL1       -0.2237
      6 C          16.8320   40.2898   33.0308 C.ar    1  UNL1        0.0897
      7 C          16.1321   41.4636   33.0675 C.ar    1  UNL1        0.0572
      8 S          14.7641   41.0677   31.9862 S.2     1  UNL1       -0.0506
      9 C          18.0912   40.1446   33.8008 C.ar    1  UNL1        0.0182
     10 C          18.6869   41.2615   34.3844 C.ar    1  UNL1        0.0015
     11 C          19.8559   41.1196   35.1043 C.ar    1  UNL1        0.0000
     12 C          20.4422   39.8739   35.2376 C.ar    1  UNL1        0.0000
     13 C          19.8582   38.7628   34.6563 C.ar    1  UNL1        0.0000
     14 C          18.6863   38.8918   33.9389 C.ar    1  UNL1        0.0015
     15 C          13.3833   37.8213   31.2351 C.3     1  UNL1        0.1265
     16 C          11.1419   38.5472   30.5944 C.2     1  UNL1       -0.0031
     17 C          12.2678   38.8340   31.1994 C.2     1  UNL1       -0.0043
     18 C          14.4956   37.1016   28.7298 C.3     1  UNL1        0.2930
     19 O          13.8810   37.7679   27.5955 O.3     1  UNL1       -0.4377
     20 C          12.7123   37.2734   27.1581 C.2     1  UNL1        0.3290
     21 O          12.5469   36.0779   27.0979 O.2     1  UNL1       -0.2491
     22 C          11.6065   38.2089   26.7422 C.3     1  UNL1        0.1729
     23 S          10.5772   37.4066   25.4880 S.3     1  UNL1       -0.0815
     24 C          10.7605   38.5531   24.1627 C.ar    1  UNL1        0.1263
     25 C          10.3472   38.1941   22.8665 C.ar    1  UNL1        0.1242
     26 N          10.4713   39.0358   21.8697 N.ar    1  UNL1       -0.2402
     27 C          11.0056   40.2459   22.0808 C.ar    1  UNL1        0.0990
     28 C          11.1541   41.1641   21.0278 C.ar    1  UNL1        0.0206
     29 C          11.7000   42.3874   21.2702 C.ar    1  UNL1        0.0016
     30 C          12.1157   42.7455   22.5509 C.ar    1  UNL1        0.0016
     31 C          11.9872   41.8815   23.5951 C.ar    1  UNL1        0.0207
     32 C          11.4282   40.6099   23.3829 C.ar    1  UNL1        0.0995
     33 N          11.2897   39.7407   24.3919 N.ar    1  UNL1       -0.2360
@<TRIPOS>BOND
     1    16    17    2
     2    17    15    1
     3    15     1    1
     4     1     4    1
     5     1     2   am
     6     4     8   ar
     7     4     5   ar
     8     5     6   ar
     9     6     7   ar
    10     6     9    1
    11     7     8   ar
    12     9    14   ar
    13     9    10   ar
    14    10    11   ar
    15    11    12   ar
    16    12    13   ar
    17    13    14   ar
    18     2     3    2
    19     2    18    1
    20    18    19    1
    21    19    20    1
    22    20    21    2
    23    20    22    1
    24    22    23    1
    25    23    24    1
    26    24    33   ar
    27    24    25   ar
    28    25    26   ar
    29    26    27   ar
    30    27    32   ar
    31    27    28   ar
    32    28    29   ar
    33    29    30   ar
    34    30    31   ar
    35    31    32   ar
    36    32    33   ar
@<TRIPOS>MOLECULE
ZINC29229828
 33 36 0 0 0
SMALL
GASTEIGER

@<TRIPOS>ATOM
      1 C          21.6457   39.7103   28.6912 C.ar    1  UNL1        0.1936
      2 N          21.2802   40.9623   28.8504 N.ar    1  UNL1       -0.1221
      3 N          22.2297   41.7489   28.4880 N.ar    1  UNL1       -0.1282
      4 C          23.2599   41.0476   28.0751 C.ar    1  UNL1        0.1669
      5 N          22.9177   39.7202   28.1925 N.ar    1  UNL1       -0.2923
      6 C          23.7427   38.5595   27.8485 C.3     1  UNL1        0.0888
      7 C          24.9318   38.4766   28.8076 C.3     1  UNL1        0.0227
      8 C          25.7934   37.2644   28.4483 C.3     1  UNL1        0.0019
      9 C          26.3045   37.4093   27.0135 C.3     1  UNL1        0.0001
     10 C          25.1154   37.4922   26.0544 C.3     1  UNL1        0.0019
     11 C          24.2539   38.7045   26.4137 C.3     1  UNL1        0.0227
     12 C          24.5447   41.5831   27.5775 C.ar    1  UNL1        0.0422
     13 C          24.6467   42.0494   26.2660 C.ar    1  UNL1        0.0433
     14 C          25.8493   42.5542   25.8040 C.ar    1  UNL1        0.1755
     15 C          26.9588   42.5879   26.6424 C.ar    1  UNL1        0.2061
     16 C          26.8611   42.1192   27.9485 C.ar    1  UNL1        0.1755
     17 C          25.6595   41.6178   28.4168 C.ar    1  UNL1        0.0433
     18 O          27.9476   42.1534   28.7657 O.3     1  UNL1       -0.4683
     19 C          28.8055   41.0106   28.7527 C.3     1  UNL1        0.2526
     20 O          28.1418   43.0795   26.1840 O.3     1  UNL1       -0.4654
     21 C          28.9304   42.2139   25.3649 C.3     1  UNL1        0.2528
     22 O          25.9480   43.0135   24.5277 O.3     1  UNL1       -0.4683
     23 C          25.5997   42.1038   23.4821 C.3     1  UNL1        0.2526
     24 S          20.6758   38.2845   29.0526 S.3     1  UNL1       -0.0656
     25 C          20.2169   38.6425   30.7665 C.3     1  UNL1        0.1528
     26 C          16.7377   39.0440   31.5554 C.ar    1  UNL1        0.1805
     27 N          18.0312   39.1733   31.9003 N.ar    1  UNL1       -0.1941
     28 C          18.7160   38.7153   30.8799 C.ar    1  UNL1        0.2477
     29 O          17.8284   38.3201   29.9624 O.2     1  UNL1       -0.3364
     30 N          16.7023   38.5166   30.3682 N.ar    1  UNL1       -0.0606
     31 C          15.5478   39.4339   32.3940 C.3     1  UNL1        0.0692
     32 C          15.9626   41.1920   34.1200 C.3     1  UNL1        0.0005
     33 C          15.5825   40.9402   32.6595 C.3     1  UNL1        0.0081
@<TRIPOS>BOND
     1    32    33    1
     2    33    31    1
     3    31    26    1
     4    26    30   ar
     5    26    27   ar
     6    27    28   ar
     7    28    29   ar
     8    28    25    1
     9    29    30   ar
    10    25    24    1
    11    24     1    1
    12     1     5   ar
    13     1     2   ar
    14     2     3   ar
    15     3     4   ar
    16     4     5   ar
    17     4    12    1
    18     5     6    1
    19     6    11    1
    20     6     7    1
    21     7     8    1
    22     8     9    1
    23     9    10    1
    24    10    11    1
    25    12    17   ar
    26    12    13   ar
    27    13    14   ar
    28    14    15   ar
    29    14    22    1
    30    15    16   ar
    31    15    20    1
    32    16    17   ar
    33    16    18    1
    34    18    19    1
    35    20    21    1
    36    22    23    1
@<TRIPOS>MOLECULE
ZINC12045716
 34 37 0 0 0
SMALL
GASTEIGER

@<TRIPOS>ATOM
      1 N          24.8326   38.7030   28.9351 N.ar    1  UNL1       -0.3149
      2 C          25.7214   37.7485   29.3880 C.ar    1  UNL1        0.0787
      3 C          27.0831   37.5374   29.2184 C.ar    1  UNL1        0.0201
      4 C          27.6883   36.4600   29.8293 C.ar    1  UNL1        0.0215
      5 C          26.9436   35.5795   30.6013 C.ar    1  UNL1        0.1238
      6 C          25.6027   35.7710   30.7788 C.ar    1  UNL1        0.0405
      7 C          24.9689   36.8600   30.1743 C.ar    1  UNL1        0.0997
      8 N          23.6873   37.3083   30.1612 N.ar    1  UNL1       -0.2309
      9 C          23.6084   38.3859   29.4364 C.ar    1  UNL1        0.1208
     10 S          27.7369   34.2045   31.3661 S.O2    1  UNL1        0.0633
     11 O          26.9811   33.8948   32.5289 O.2     1  UNL1       -0.1528
     12 O          29.1230   34.5129   31.4182 O.2     1  UNL1       -0.1528
     13 N          27.5772   32.9144   30.3402 N.3     1  UNL1       -0.1555
     14 C          27.2218   32.9913   28.9157 C.3     1  UNL1        0.0958
     15 C          27.1674   31.5457   28.3782 C.3     1  UNL1        0.0206
     16 C          26.9317   30.7083   29.6629 C.3     1  UNL1        0.0206
     17 C          27.7616   31.4981   30.7057 C.3     1  UNL1        0.0958
     18 C          25.1493   39.8453   28.0744 C.3     1  UNL1        0.1072
     19 C          24.9232   42.2730   28.6201 C.3     1  UNL1        0.0021
     20 C          25.6983   40.9903   28.9280 C.3     1  UNL1        0.0245
     21 C          22.3448   39.1686   29.1879 C.3     1  UNL1        0.0756
     22 C          21.5919   38.5590   28.0035 C.3     1  UNL1        0.1175
     23 C          20.7031   37.4448   28.4930 C.2     1  UNL1        0.3178
     24 O          20.4979   36.4829   27.7910 O.2     1  UNL1       -0.2501
     25 O          20.1392   37.5210   29.7087 O.3     1  UNL1       -0.4435
     26 C          18.9571   38.3545   29.8360 C.3     1  UNL1        0.2348
     27 C          19.1014   39.2505   31.0391 C.2     1  UNL1        0.0208
     28 C          19.1593   38.7241   32.2544 C.2     1  UNL1       -0.0009
     29 C          19.3010   39.6030   33.4344 C.ar    1  UNL1       -0.0002
     30 C          18.4104   40.6587   33.6327 C.ar    1  UNL1       -0.0000
     31 C          18.5445   41.4718   34.7394 C.ar    1  UNL1       -0.0000
     32 C          19.5666   41.2494   35.6449 C.ar    1  UNL1       -0.0000
     33 C          20.4560   40.2077   35.4512 C.ar    1  UNL1       -0.0000
     34 C          20.3293   39.3838   34.3517 C.ar    1  UNL1       -0.0000
@<TRIPOS>BOND
     1    19    20    1
     2    20    18    1
     3    18     1    1
     4     1     9   ar
     5     1     2   ar
     6     2     7   ar
     7     2     3   ar
     8     3     4   ar
     9     4     5   ar
    10     5     6   ar
    11     5    10    1
    12     6     7   ar
    13     7     8   ar
    14     8     9   ar
    15     9    21    1
    16    21    22    1
    17    22    23    1
    18    23    24    2
    19    23    25    1
    20    25    26    1
    21    26    27    1
    22    27    28    2
    23    28    29    1
    24    29    34   ar
    25    29    30   ar
    26    30    31   ar
    27    31    32   ar
    28    32    33   ar
    29    33    34   ar
    30    10    11    2
    31    10    12    2
    32    10    13    1
    33    13    17    1
    34    13    14    1
    35    14    15    1
    36    15    16    1
    37    16    17    1
@<TRIPOS>MOLECULE
ZINC27999094
 33 36 0 0 0
SMALL
GASTEIGER

@<TRIPOS>ATOM
      1 C          21.5700   40.0580   28.3847 C.ar    1  UNL1        0.1321
      2 N          22.5578   39.4769   27.6605 N.ar    1  UNL1       -0.1939
      3 C          23.6628   40.1613   27.3054 C.ar    1  UNL1        0.2818
      4 O          24.5427   39.6313   26.6506 O.2     1  UNL1       -0.2651
      5 C          23.7823   41.5729   27.7367 C.ar    1  UNL1        0.0764
      6 C          24.8160   42.4821   27.5041 C.ar    1  UNL1       -0.0030
      7 C          24.7273   43.7521   27.9967 C.ar    1  UNL1        0.1026
      8 S          23.1510   43.7411   28.8338 S.2     1  UNL1       -0.0636
      9 C          22.6904   42.0615   28.4905 C.ar    1  UNL1        0.0924
     10 N          21.6438   41.2996   28.7811 N.ar    1  UNL1       -0.3361
     11 C          26.0267   42.0625   26.7109 C.3     1  UNL1        0.0320
     12 H          20.9048   41.6799   29.3086 H       1  UNL1        0.1676
     13 C          25.6871   44.8508   27.8700 C.2     1  UNL1        0.3471
     14 O          26.7256   44.8271   28.5028 O.2     1  UNL1       -0.2443
     15 O          25.4196   45.8891   27.0515 O.3     1  UNL1       -0.4423
     16 C          24.6333   46.9780   27.6032 C.3     1  UNL1        0.2407
     17 C          24.5231   48.1017   26.5708 C.3     1  UNL1        0.1895
     18 O          24.5240   49.3647   27.2395 O.3     1  UNL1       -0.3471
     19 C          24.7843   50.4769   26.3808 C.3     1  UNL1        0.1743
     20 C          20.3540   39.2452   28.7478 C.3     1  UNL1        0.1286
     21 S          20.3501   38.9286   30.5299 S.3     1  UNL1       -0.0689
     22 N          18.0007   39.3099   31.9832 N.ar    1  UNL1       -0.2842
     23 C          16.6469   39.1241   31.8014 C.ar    1  UNL1        0.1025
     24 C          16.4820   38.6312   30.5620 C.ar    1  UNL1        0.1200
     25 N          17.6920   38.5048   29.9913 N.ar    1  UNL1       -0.2192
     26 C          18.6146   38.9087   30.8333 C.ar    1  UNL1        0.1757
     27 C          16.7981   41.5165   33.3196 C.3     1  UNL1        0.0326
     28 C          18.0736   40.8851   33.8151 C.ar    1  UNL1       -0.0057
     29 C          18.6933   41.3757   34.9481 C.ar    1  UNL1       -0.0028
     30 C          19.8635   40.7970   35.4033 C.ar    1  UNL1       -0.0002
     31 C          20.4173   39.7258   34.7263 C.ar    1  UNL1        0.0015
     32 C          19.8001   39.2282   33.5955 C.ar    1  UNL1        0.0173
     33 C          18.6274   39.8104   33.1332 C.ar    1  UNL1        0.0619
@<TRIPOS>BOND
     1    27    28    1
     2    28    33   ar
     3    28    29   ar
     4    29    30   ar
     5    30    31   ar
     6    31    32   ar
     7    32    33   ar
     8    33    22    1
     9    22    26   ar
    10    22    23   ar
    11    23    24   ar
    12    24    25   ar
    13    25    26   ar
    14    26    21    1
    15    21    20    1
    16    20     1    1
    17     1    10   ar
    18     1     2   ar
    19     2     3   ar
    20     3     4    2
    21     3     5   ar
    22     5     9   ar
    23     5     6   ar
    24     6     7   ar
    25     6    11    1
    26     7     8   ar
    27     7    13    1
    28     8     9   ar
    29     9    10   ar
    30    13    14    2
    31    13    15    1
    32    15    16    1
    33    16    17    1
    34    17    18    1
    35    18    19    1
    36    10    12    1
@<TRIPOS>MOLECULE
ZINC28399584
 34 37 0 0 0
SMALL
GASTEIGER

@<TRIPOS>ATOM
      1 N          24.3568   40.6164   26.1224 N.ar    1  UNL1       -0.2854
      2 C          24.8830   41.5791   26.9499 C.ar    1  UNL1        0.0959
      3 C          24.7167   41.7245   28.3171 C.2     1  UNL1        0.0614
      4 S          25.8272   42.6015   25.8313 S.2     1  UNL1       -0.0648
      5 C          25.4879   41.7012   24.3251 C.ar    1  UNL1        0.0870
      6 C          25.9143   41.9476   23.0575 C.2     1  UNL1        0.0144
      7 C          24.6176   40.6236   24.8261 C.ar    1  UNL1        0.2675
      8 O          24.1593   39.7775   24.0802 O.2     1  UNL1       -0.2664
      9 C          25.6426   40.9789   21.9918 C.ar    1  UNL1        0.0379
     10 C          26.5513   39.9431   21.7333 C.ar    1  UNL1        0.0431
     11 C          26.2899   39.0349   20.7291 C.ar    1  UNL1        0.1726
     12 C          25.1235   39.1446   19.9702 C.ar    1  UNL1        0.1754
     13 C          24.2198   40.1659   20.2200 C.ar    1  UNL1        0.0769
     14 C          24.4671   41.0810   21.2282 C.ar    1  UNL1        0.1419
     15 O          23.5791   42.0778   21.4757 O.3     1  UNL1       -0.4713
     16 C          22.1917   41.7482   21.3834 C.3     1  UNL1        0.2525
     17 O          24.8726   38.2464   18.9827 O.3     1  UNL1       -0.4683
     18 C          24.9982   38.7099   17.6368 C.3     1  UNL1        0.2526
     19 O          27.1713   38.0296   20.4772 O.3     1  UNL1       -0.4684
     20 C          28.3526   38.3698   19.7484 C.3     1  UNL1        0.2526
     21 C          25.3408   42.7697   28.9852 C.2     1  UNL1        0.1747
     22 O          26.5300   42.7070   29.2375 O.2     1  UNL1       -0.2913
     23 C          24.5458   43.9817   29.3978 C.3     1  UNL1        0.0620
     24 C          23.0881   44.0600   28.9398 C.3     1  UNL1        0.0081
     25 C          24.1407   44.9680   28.3006 C.3     1  UNL1        0.0081
     26 C          23.4971   39.5707   26.6825 C.3     1  UNL1        0.1392
     27 C          24.0652   38.2065   28.7082 C.ar    1  UNL1        0.1365
     28 C          24.8491   37.2656   29.3605 C.ar    1  UNL1        0.0366
     29 C          25.9076   36.6730   28.7000 C.ar    1  UNL1        0.0031
     30 C          26.1863   37.0166   27.3898 C.ar    1  UNL1       -0.0001
     31 C          25.4035   37.9499   26.7361 C.ar    1  UNL1        0.0006
     32 C          24.3468   38.5495   27.3941 C.ar    1  UNL1        0.0345
     33 C          21.8842   37.9703   29.6247 C.3     1  UNL1        0.2525
     34 O          23.0229   38.7907   29.3558 O.3     1  UNL1       -0.4717
@<TRIPOS>BOND
     1    33    34    1
     2    34    27    1
     3    27    32   ar
     4    27    28   ar
     5    28    29   ar
     6    29    30   ar
     7    30    31   ar
     8    31    32   ar
     9    32    26    1
    10    26     1    1
    11     1     7   ar
    12     1     2   ar
    13     2     3    2
    14     2     4   ar
    15     3    21    1
    16    21    22    2
    17    21    23    1
    18    23    25    1
    19    23    24    1
    20    24    25    1
    21     4     5   ar
    22     5     6    2
    23     5     7   ar
    24     6     9    1
    25     9    14   ar
    26     9    10   ar
    27    10    11   ar
    28    11    12   ar
    29    11    19    1
    30    12    13   ar
    31    12    17    1
    32    13    14   ar
    33    14    15    1
    34    15    16    1
    35    17    18    1
    36    19    20    1
    37     7     8    2
@<TRIPOS>MOLECULE
ZINC29493093
 35 38 0 0 0
SMALL
GASTEIGER

@<TRIPOS>ATOM
      1 N          19.7808   39.3499   32.1669 N.ar    1  UNL1       -0.1435
      2 C          18.5835   38.7403   32.0006 C.ar    1  UNL1        0.0456
      3 O          18.3417   37.7492   31.3372 O.co2   1  UNL1       -0.8574
      4 C          17.6364   39.5389   32.8026 C.ar    1  UNL1        0.1619
      5 N          18.3258   40.5181   33.3454 N.ar    1  UNL1       -0.1237
      6 N          19.5616   40.4481   33.0071 N.ar    1  UNL1       -0.0431
      7 C          16.1948   39.2903   32.9600 C.2     1  UNL1        0.2689
      8 O          15.7492   38.9603   34.0427 O.2     1  UNL1       -0.2682
      9 N          15.3680   39.4282   31.9046 N.am    1  UNL1       -0.2748
     10 C          15.9053   39.6806   30.5606 C.3     1  UNL1        0.0941
     11 C          15.3370   38.6241   29.6010 C.3     1  UNL1        0.0259
     12 C          13.8088   38.6411   29.6798 C.3     1  UNL1        0.0257
     13 C          13.3657   38.2879   31.1014 C.3     1  UNL1        0.0259
     14 C          13.9119   39.3350   32.0772 C.3     1  UNL1        0.0941
     15 C          13.2452   37.6319   28.7129 C.ar    1  UNL1       -0.0224
     16 C          14.0790   36.7021   28.1201 C.ar    1  UNL1       -0.0043
     17 C          13.5612   35.7736   27.2366 C.ar    1  UNL1       -0.0003
     18 C          12.2114   35.7809   26.9385 C.ar    1  UNL1       -0.0000
     19 C          11.3785   36.7137   27.5276 C.ar    1  UNL1       -0.0003
     20 C          11.8955   37.6394   28.4144 C.ar    1  UNL1       -0.0043
     21 C          21.0832   38.7257   30.3281 C.2     1  UNL1        0.1221
     22 N          21.0025   38.9603   31.6024 N.2     1  UNL1       -0.1462
     23 C          24.7847   37.5443   28.6170 C.ar    1  UNL1        0.0478
     24 C          24.4946   37.2163   29.9372 C.ar    1  UNL1        0.0146
     25 C          23.2947   37.5978   30.4957 C.ar    1  UNL1        0.0029
     26 C          22.3684   38.3159   29.7342 C.ar    1  UNL1        0.0210
     27 C          22.6615   38.6397   28.4064 C.ar    1  UNL1        0.0029
     28 C          23.8652   38.2584   27.8561 C.ar    1  UNL1        0.0146
     29 N          26.0006   37.1558   28.0547 N.pl3   1  UNL1       -0.3075
     30 C          26.5894   37.9419   26.9676 C.3     1  UNL1        0.0908
     31 C          27.1713   40.2424   27.7493 C.3     1  UNL1        0.0018
     32 C          27.7062   38.8266   27.5251 C.3     1  UNL1        0.0214
     33 C          26.6889   35.9616   28.5511 C.3     1  UNL1        0.0908
     34 C          26.8759   34.9668   27.4037 C.3     1  UNL1        0.0214
     35 C          27.0776   33.5617   27.9748 C.3     1  UNL1        0.0018
@<TRIPOS>UNITY_ATOM_ATTR
3 1
charge -1
@<TRIPOS>BOND
     1    31    32    1
     2    32    30    1
     3    30    29    1
     4    29    33    1
     5    29    23    1
     6    33    34    1
     7    34    35    1
     8    23    28   ar
     9    23    24   ar
    10    24    25   ar
    11    25    26   ar
    12    26    27   ar
    13    26    21    1
    14    27    28   ar
    15    21    22    2
    16    22     1    1
    17     1     6   ar
    18     1     2   ar
    19     2     3    1
    20     2     4   ar
    21     4     5   ar
    22     4     7    1
    23     5     6   ar
    24     7     8    2
    25     7     9   am
    26     9    14    1
    27     9    10    1
    28    10    11    1
    29    11    12    1
    30    12    13    1
    31    12    15    1
    32    13    14    1
    33    15    20   ar
    34    15    16   ar
    35    16    17   ar
    36    17    18   ar
    37    18    19   ar
    38    19    20   ar
@<TRIPOS>MOLECULE
ZINC17653711
 34 36 0 0 0
SMALL
GASTEIGER

@<TRIPOS>ATOM
      1 C          21.3180   38.7004   29.9582 C.ar    1  UNL1        0.0770
      2 C          20.5915   38.1167   28.9182 C.ar    1  UNL1        0.0065
      3 C          21.2114   37.8441   27.7166 C.ar    1  UNL1        0.0016
      4 C          22.5487   38.1526   27.5386 C.ar    1  UNL1        0.0202
      5 C          23.2756   38.7261   28.5666 C.ar    1  UNL1        0.1256
      6 C          22.6681   39.0040   29.7736 C.ar    1  UNL1        0.0266
      7 S          24.9793   39.1090   28.3312 S.O2    1  UNL1        0.0769
      8 O          25.5054   38.1082   27.4705 O.2     1  UNL1       -0.1497
      9 O          25.5196   39.3663   29.6201 O.2     1  UNL1       -0.1497
     10 N          25.0494   40.5368   27.4952 N.pl3   1  UNL1       -0.1862
     11 C          24.6474   41.7256   28.1084 C.ar    1  UNL1        0.0692
     12 C          25.5908   42.5600   28.6946 C.ar    1  UNL1        0.0161
     13 C          25.1900   43.7345   29.3004 C.ar    1  UNL1        0.0013
     14 C          23.8512   44.0802   29.3242 C.ar    1  UNL1        0.0001
     15 C          22.9095   43.2519   28.7416 C.ar    1  UNL1        0.0013
     16 C          23.3035   42.0759   28.1340 C.ar    1  UNL1        0.0161
     17 C          25.5328   40.5529   26.1123 C.3     1  UNL1        0.1419
     18 C          24.3576   40.5819   25.1695 C.2     1  UNL1       -0.0029
     19 C          24.0967   39.5428   24.4158 C.2     1  UNL1       -0.0031
     20 C          20.6607   38.9956   31.2479 C.2     1  UNL1        0.3419
     21 O          21.2394   38.7664   32.2910 O.2     1  UNL1       -0.2449
     22 O          19.4196   39.5190   31.2670 O.3     1  UNL1       -0.4351
     23 C          18.6152   39.2649   32.4489 C.3     1  UNL1        0.2667
     24 C          17.1612   39.1888   32.0601 C.ar    1  UNL1        0.0263
     25 C          16.1797   39.3986   33.0108 C.ar    1  UNL1       -0.0003
     26 C          14.8460   39.3332   32.6532 C.ar    1  UNL1       -0.0002
     27 C          14.4936   39.0486   31.3471 C.ar    1  UNL1       -0.0000
     28 C          15.4752   38.8342   30.3975 C.ar    1  UNL1       -0.0002
     29 C          16.8089   38.9038   30.7542 C.ar    1  UNL1       -0.0003
     30 C          19.3304   41.1767   35.6849 C.3     1  UNL1        0.1150
     31 N          19.2565   40.1101   34.6834 N.am    1  UNL1       -0.2728
     32 C          19.6652   38.7474   35.0330 C.3     1  UNL1        0.1150
     33 C          18.8123   40.3825   33.4404 C.2     1  UNL1        0.2705
     34 O          18.5712   41.5271   33.1199 O.2     1  UNL1       -0.2706
@<TRIPOS>BOND
     1    30    31    1
     2    31    32    1
     3    31    33   am
     4    33    34    2
     5    33    23    1
     6    23    24    1
     7    23    22    1
     8    24    29   ar
     9    24    25   ar
    10    25    26   ar
    11    26    27   ar
    12    27    28   ar
    13    28    29   ar
    14    22    20    1
    15    20    21    2
    16    20     1    1
    17     1     6   ar
    18     1     2   ar
    19     2     3   ar
    20     3     4   ar
    21     4     5   ar
    22     5     6   ar
    23     5     7    1
    24     7     8    2
    25     7     9    2
    26     7    10    1
    27    10    17    1
    28    10    11    1
    29    17    18    1
    30    18    19    2
    31    11    16   ar
    32    11    12   ar
    33    12    13   ar
    34    13    14   ar
    35    14    15   ar
    36    15    16   ar
@<TRIPOS>MOLECULE
ZINC05439501
 39 44 0 0 0
SMALL
GASTEIGER

@<TRIPOS>ATOM
      1 C          21.9738   38.6642   28.8698 C.3     1  UNL1        0.2021
      2 C          22.9154   37.5244   28.3776 C.3     1  UNL1        0.0703
      3 C          23.4657   38.1182   27.0677 C.3     1  UNL1        0.0326
      4 C          24.7978   37.5110   26.6418 C.3     1  UNL1        0.0028
      5 C          25.3333   38.3192   25.4510 C.3     1  UNL1        0.0002
      6 C          25.5916   39.7700   25.8367 C.3     1  UNL1        0.0023
      7 C          24.2966   40.4465   26.3180 C.3     1  UNL1        0.0274
      8 C          23.7411   39.5943   27.4403 C.3     1  UNL1        0.1213
      9 C          22.7760   39.9592   28.5494 C.3     1  UNL1        0.1797
     10 O          24.1892   39.8757   28.7746 O.3     1  UNL1       -0.3524
     11 C          24.6213   41.8634   26.7891 C.3     1  UNL1        0.0024
     12 C          25.2157   42.6537   25.6185 C.3     1  UNL1        0.0002
     13 C          25.2560   41.7637   24.3751 C.3     1  UNL1        0.0036
     14 C          26.1519   40.5548   24.6526 C.3     1  UNL1        0.0003
     15 C          26.1701   39.6701   23.4047 C.3     1  UNL1        0.0037
     16 C          26.7389   40.4651   22.2273 C.3     1  UNL1        0.0436
     17 C          25.8673   41.6957   21.9702 C.3     1  UNL1        0.1688
     18 C          25.8261   42.5507   23.1939 C.3     1  UNL1        0.0436
     19 C          27.5768   41.0113   24.9724 C.3     1  UNL1        0.0000
     20 C          22.4337   38.0072   25.9435 C.3     1  UNL1        0.0029
     21 C          24.0255   37.2767   29.3662 C.ar    1  UNL1        0.0191
     22 C          25.3389   37.0672   28.9117 C.ar    1  UNL1        0.0056
     23 C          26.3259   36.8388   29.8249 C.ar    1  UNL1        0.0821
     24 C          25.9997   36.8210   31.1931 C.ar    1  UNL1        0.3460
     25 O          26.8687   36.6192   32.0242 O.2     1  UNL1       -0.2445
     26 O          24.7308   37.0261   31.5845 O.2     1  UNL1       -0.4182
     27 C          23.7587   37.2499   30.6890 C.ar    1  UNL1        0.1788
     28 O          21.7348   38.5494   30.2974 O.3     1  UNL1       -0.4493
     29 C          20.4555   38.5591   30.7038 C.2     1  UNL1        0.3169
     30 O          19.6394   37.8638   30.1467 O.2     1  UNL1       -0.2501
     31 C          20.0373   39.4372   31.8548 C.3     1  UNL1        0.1096
     32 C          18.7642   38.8738   32.4897 C.3     1  UNL1        0.0116
     33 C          18.6069   39.4375   33.9034 C.3     1  UNL1        0.0006
     34 C          20.4910   40.3877   35.2411 C.3     1  UNL1        0.0000
     35 C          19.8488   39.0968   34.7296 C.3     1  UNL1        0.0000
     36 O          26.4133   42.4510   20.8567 O.3     1  UNL1       -0.4523
     37 C          25.5609   42.7980   19.8796 C.2     1  UNL1        0.3174
     38 O          24.9661   43.8478   19.9414 O.2     1  UNL1       -0.2501
     39 C          25.3461   41.8782   18.7053 C.3     1  UNL1        0.1212
@<TRIPOS>BOND
     1    34    35    1
     2    35    33    1
     3    33    32    1
     4    32    31    1
     5    31    29    1
     6    29    30    2
     7    29    28    1
     8    28     1    1
     9     1     9    1
    10     1     2    1
    11     2     3    1
    12     2    21    1
    13     3     8    1
    14     3     4    1
    15     3    20    1
    16     4     5    1
    17     5     6    1
    18     6    14    1
    19     6     7    1
    20     7     8    1
    21     7    11    1
    22     8    10    1
    23     8     9    1
    24     9    10    1
    25    11    12    1
    26    12    13    1
    27    13    18    1
    28    13    14    1
    29    14    15    1
    30    14    19    1
    31    15    16    1
    32    16    17    1
    33    17    18    1
    34    17    36    1
    35    36    37    1
    36    37    38    2
    37    37    39    1
    38    21    27   ar
    39    21    22   ar
    40    22    23   ar
    41    23    24   ar
    42    24    25    2
    43    24    26   ar
    44    26    27   ar
@<TRIPOS>MOLECULE
ZINC15414661
 38 41 0 0 0
SMALL
GASTEIGER

@<TRIPOS>ATOM
      1 C          27.1658   36.5542   32.1229 C.3     1  UNL1        0.0024
      2 C          26.0090   36.3186   31.1588 C.3     1  UNL1        0.0250
      3 C          25.3878   34.9451   31.4144 C.3     1  UNL1        0.0023
      4 C          26.3711   33.8599   30.9855 C.3     1  UNL1        0.0003
      5 C          26.6345   33.9608   29.4792 C.3     1  UNL1        0.0068
      6 C          27.2047   35.3212   29.1102 C.3     1  UNL1        0.0231
      7 C          26.3930   36.4731   29.7047 C.3     1  UNL1        0.0926
      8 C          27.1165   37.8155   29.4639 C.3     1  UNL1        0.0297
      9 C          25.9244   38.8098   29.4457 C.3     1  UNL1        0.0335
     10 C          24.7886   37.9654   28.8358 C.3     1  UNL1        0.1364
     11 O          25.1804   36.5902   28.9165 O.3     1  UNL1       -0.3595
     12 C          28.6775   35.4493   29.4780 C.3     1  UNL1        0.0047
     13 C          29.4877   34.3043   28.8577 C.3     1  UNL1        0.0298
     14 C          28.9711   32.9932   29.4370 C.3     1  UNL1        0.1198
     15 C          27.5018   32.7825   29.0696 C.3     1  UNL1        0.0526
     16 C          27.0756   31.5155   29.8476 C.3     1  UNL1        0.1468
     17 O          27.8807   30.4375   29.3672 O.3     1  UNL1       -0.3342
     18 C          29.2925   30.6020   29.4460 C.3     1  UNL1        0.1872
     19 O          29.7170   31.8761   28.9626 O.3     1  UNL1       -0.3367
     20 C          29.7580   30.4127   30.8927 C.3     1  UNL1        0.0612
     21 C          29.9545   29.5142   28.5826 C.3     1  UNL1        0.0612
     22 C          27.3594   32.4496   27.5841 C.3     1  UNL1        0.0049
     23 C          27.0844   35.5072   27.5763 C.3     1  UNL1        0.0023
     24 C          24.5891   38.3635   27.3682 C.3     1  UNL1        0.0783
     25 C          23.7847   39.6632   27.2973 C.3     1  UNL1        0.2110
     26 O          24.5176   40.6439   26.5168 O.3     1  UNL1       -0.4484
     27 C          24.5014   41.9109   26.9599 C.2     1  UNL1        0.3164
     28 O          24.7197   42.8210   26.1958 O.2     1  UNL1       -0.2501
     29 C          24.2109   42.1981   28.4105 C.3     1  UNL1        0.0991
     30 C          25.4363   42.8469   29.0572 C.3     1  UNL1        0.0116
     31 C          23.0167   43.1490   28.5128 C.3     1  UNL1        0.0116
     32 C          23.4864   38.2010   29.6035 C.3     1  UNL1        0.2353
     33 O          22.5526   37.1275   29.3139 O.3     1  UNL1       -0.4459
     34 C          21.2661   37.4689   29.1406 C.2     1  UNL1        0.3165
     35 O          20.5175   36.7248   28.5526 O.2     1  UNL1       -0.2501
     36 C          20.7555   38.7803   29.6794 C.3     1  UNL1        0.0991
     37 C          20.4010   39.7069   28.5147 C.3     1  UNL1        0.0116
     38 C          19.5087   38.5312   30.5306 C.3     1  UNL1        0.0116
@<TRIPOS>BOND
     1     1     2    1
     2     2     7    1
     3     2     3    1
     4     3     4    1
     5     4     5    1
     6     5    15    1
     7     5     6    1
     8     6     7    1
     9     6    12    1
    10     6    23    1
    11     7    11    1
    12     7     8    1
    13     8     9    1
    14     9    10    1
    15    10    11    1
    16    10    24    1
    17    10    32    1
    18    24    25    1
    19    25    26    1
    20    26    27    1
    21    27    28    2
    22    27    29    1
    23    29    30    1
    24    29    31    1
    25    32    33    1
    26    33    34    1
    27    34    35    2
    28    34    36    1
    29    36    37    1
    30    36    38    1
    31    12    13    1
    32    13    14    1
    33    14    19    1
    34    14    15    1
    35    15    16    1
    36    15    22    1
    37    16    17    1
    38    17    18    1
    39    18    19    1
    40    18    20    1
    41    18    21    1
@<TRIPOS>MOLECULE
ZINC19791553
 39 42 0 0 0
SMALL
GASTEIGER

@<TRIPOS>ATOM
      1 C          22.4251   49.3407   19.4357 C.ar    1  UNL1       -0.0374
      2 C          21.5809   49.2407   20.5047 C.ar    1  UNL1        0.0009
      3 C          21.4612   50.3091   21.3941 C.ar    1  UNL1        0.0761
      4 C          20.5617   50.2415   22.5587 C.ar    1  UNL1        0.2357
      5 O          19.8903   49.2489   22.7859 O.2     1  UNL1       -0.2831
      6 C          20.5085   51.3833   23.4079 C.ar    1  UNL1        0.2223
      7 C          21.2662   52.4606   23.1216 C.ar    1  UNL1        0.2541
      8 O          22.0812   52.5118   22.0596 O.2     1  UNL1       -0.4466
      9 C          22.2053   51.4858   21.1939 C.ar    1  UNL1        0.1487
     10 C          23.0589   51.5713   20.1033 C.ar    1  UNL1        0.0515
     11 C          23.1702   50.5004   19.2323 C.ar    1  UNL1       -0.0910
     12 O          24.0093   50.5827   18.1684 O.co2   1  UNL1       -0.8731
     13 C          21.1932   53.6577   24.0340 C.3     1  UNL1        0.4542
     14 F          19.8542   53.9458   24.3191 F       1  UNL1       -0.1631
     15 F          21.8739   53.3790   25.2241 F       1  UNL1       -0.1631
     16 F          21.7838   54.7594   23.4060 F       1  UNL1       -0.1631
     17 C          22.5563   48.1877   18.4743 C.3     1  UNL1        0.0251
     18 C          23.2727   47.0260   19.1656 C.3     1  UNL1        0.0046
     19 C          24.7854   47.1950   19.0107 C.3     1  UNL1        0.0003
     20 C          25.4488   47.1373   20.3882 C.3     1  UNL1        0.0000
     21 C          24.8390   48.5721   22.3406 C.3     1  UNL1        0.0000
     22 C          25.5289   48.5480   20.9751 C.3     1  UNL1        0.0000
     23 C          23.8650   52.8230   19.8699 C.3     1  UNL1        0.1348
     24 N          25.2969   52.5074   19.9602 N.4     1  UNL1        0.2832
     25 C          25.7049   52.3065   21.3582 C.3     1  UNL1        0.1384
     26 C          27.1862   51.9220   21.4015 C.3     1  UNL1        0.2029
     27 O          27.9564   52.9378   20.7533 O.3     1  UNL1       -0.3412
     28 C          27.5858   53.1592   19.3898 C.3     1  UNL1        0.2029
     29 C          26.1086   53.5562   19.3261 C.3     1  UNL1        0.1384
     30 H          25.4565   51.6354   19.4556 H       1  UNL1        0.2072
     31 O          19.6974   51.3870   24.5010 O.3     1  UNL1       -0.4472
     32 C          20.1713   50.8351   25.6487 C.ar    1  UNL1        0.1450
     33 C          21.4656   50.3370   25.6976 C.ar    1  UNL1        0.0332
     34 C          21.9464   49.7808   26.8671 C.ar    1  UNL1       -0.0191
     35 C          21.1360   49.7110   27.9853 C.ar    1  UNL1       -0.0083
     36 C          19.8441   50.2015   27.9375 C.ar    1  UNL1       -0.0191
     37 C          19.3600   50.7634   26.7722 C.ar    1  UNL1        0.0332
     38 C          18.9635   50.1233   29.1579 C.3     1  UNL1        0.0311
     39 C          23.3538   49.2448   26.9227 C.3     1  UNL1        0.0311
@<TRIPOS>UNITY_ATOM_ATTR
12 1
charge -1
24 1
charge 1
@<TRIPOS>BOND
     1    21    22    1
     2    22    20    1
     3    20    19    1
     4    19    18    1
     5    18    17    1
     6    17     1    1
     7     1    11   ar
     8     1     2   ar
     9     2     3   ar
    10     3     9   ar
    11     3     4   ar
    12     4     5    2
    13     4     6   ar
    14     6     7   ar
    15     6    31    1
    16     7     8   ar
    17     7    13    1
    18     8     9   ar
    19     9    10   ar
    20    10    11   ar
    21    10    23    1
    22    11    12    1
    23    23    24    1
    24    24    29    1
    25    24    25    1
    26    25    26    1
    27    26    27    1
    28    27    28    1
    29    28    29    1
    30    13    14    1
    31    13    15    1
    32    13    16    1
    33    31    32    1
    34    32    37   ar
    35    32    33   ar
    36    33    34   ar
    37    34    35   ar
    38    34    39    1
    39    35    36   ar
    40    36    37   ar
    41    36    38    1
    42    24    30    1
@<TRIPOS>MOLECULE
ZINC20065865
 32 35 0 0 0
SMALL
GASTEIGER

@<TRIPOS>ATOM
      1 N          17.0025   39.1988   32.3307 N.ar    1  UNL1       -0.2757
      2 C          15.6571   39.1510   32.3135 C.ar    1  UNL1        0.2639
      3 O          15.0129   39.4913   33.2908 O.2     1  UNL1       -0.2669
      4 C          14.9958   38.6940   31.1306 C.ar    1  UNL1        0.0762
      5 C          13.5482   38.5618   30.8963 C.ar    1  UNL1       -0.0136
      6 C          13.1670   38.1100   29.6909 C.ar    1  UNL1        0.0049
      7 S          14.6826   37.8228   28.8061 S.2     1  UNL1       -0.0725
      8 C          15.8276   38.3263   30.0632 C.ar    1  UNL1        0.1168
      9 N          17.1518   38.3954   30.1437 N.ar    1  UNL1       -0.2158
     10 C          17.7379   38.8197   31.2452 C.ar    1  UNL1        0.1743
     11 C          11.6697   38.0210   29.5647 C.3     1  UNL1        0.0330
     12 C          11.1312   38.8944   30.7192 C.3     1  UNL1        0.0099
     13 C          12.2919   38.8261   31.7309 C.3     1  UNL1        0.0271
     14 C          17.6899   39.6659   33.5371 C.3     1  UNL1        0.1110
     15 C          17.6737   41.1954   33.5735 C.3     1  UNL1        0.0247
     16 C          19.0535   41.7104   33.9879 C.3     1  UNL1        0.0020
     17 C          19.3912   41.1945   35.3880 C.3     1  UNL1        0.0001
     18 C          20.1504   38.8167   35.5008 C.3     1  UNL1        0.0000
     19 C          20.6043   40.2654   35.3105 C.3     1  UNL1        0.0000
     20 S          19.4967   38.8983   31.3177 S.3     1  UNL1       -0.0692
     21 C          19.8678   39.2426   29.5799 C.3     1  UNL1        0.1308
     22 C          20.7005   38.1219   29.0125 C.2     1  UNL1        0.1819
     23 O          20.3837   36.9738   29.2117 O.2     1  UNL1       -0.2936
     24 C          21.9285   38.4341   28.1967 C.3     1  UNL1        0.1951
     25 C          23.1491   37.9027   28.9028 C.ar    1  UNL1        0.1089
     26 N          23.2749   37.5083   30.1489 N.ar    1  UNL1       -0.2455
     27 C          24.4231   37.0654   30.6166 C.ar    1  UNL1        0.0661
     28 C          25.4887   37.0231   29.7769 C.ar    1  UNL1        0.0513
     29 S          24.7482   37.6479   28.2752 S.2     1  UNL1       -0.0692
     30 C          24.5512   36.6167   32.0497 C.3     1  UNL1        0.0527
     31 C          21.8125   37.8002   26.8732 C.1     1  UNL1        0.0863
     32 N          21.7230   37.3111   25.8519 N.1     1  UNL1       -0.1950
@<TRIPOS>BOND
     1    18    19    1
     2    19    17    1
     3    17    16    1
     4    16    15    1
     5    15    14    1
     6    14     1    1
     7     1    10   ar
     8     1     2   ar
     9     2     3    2
    10     2     4   ar
    11     4     8   ar
    12     4     5   ar
    13     5    13    1
    14     5     6   ar
    15     6     7   ar
    16     6    11    1
    17     7     8   ar
    18     8     9   ar
    19     9    10   ar
    20    10    20    1
    21    20    21    1
    22    21    22    1
    23    22    23    2
    24    22    24    1
    25    24    31    1
    26    24    25    1
    27    31    32    3
    28    25    29   ar
    29    25    26   ar
    30    26    27   ar
    31    27    28   ar
    32    27    30    1
    33    28    29   ar
    34    11    12    1
    35    12    13    1
@<TRIPOS>MOLECULE
ZINC27080892
 33 37 0 0 0
SMALL
GASTEIGER

@<TRIPOS>ATOM
      1 C          25.4723   40.7233   27.4982 C.3     1  UNL1        0.0393
      2 C          25.5519   39.2452   27.7962 C.3     1  UNL1        0.0058
      3 C          26.7297   38.5912   27.0903 C.3     1  UNL1        0.0287
      4 C          28.0404   39.3910   27.2528 C.3     1  UNL1        0.0099
      5 C          29.0803   38.5442   26.5088 C.3     1  UNL1        0.0006
      6 C          28.7188   37.1131   27.0128 C.3     1  UNL1        0.0024
      7 C          27.1716   37.1344   27.1670 C.3     1  UNL1        0.0281
      8 C          26.4253   37.6569   25.9283 C.3     1  UNL1        0.1331
      9 CL         24.7140   37.1068   25.7215 Cl      1  UNL1       -0.0996
     10 CL         27.3774   37.7343   24.3990 Cl      1  UNL1       -0.0996
     11 C          26.5098   36.1275   28.1033 C.3     1  UNL1        0.0025
     12 C          27.7642   40.7782   26.6794 C.3     1  UNL1        0.0665
     13 C          26.8165   41.4949   27.7055 C.3     1  UNL1        0.0558
     14 C          26.4339   42.8233   27.0278 C.2     1  UNL1       -0.0440
     15 C          25.5875   42.5743   26.0452 C.2     1  UNL1       -0.0345
     16 C          25.4174   41.0432   25.9731 C.3     1  UNL1        0.0248
     17 C          26.8223   40.6033   25.4546 C.3     1  UNL1        0.0124
     18 C          26.9144   44.1927   27.4406 C.3     1  UNL1        0.0183
     19 C          27.3073   44.9917   26.1963 C.3     1  UNL1        0.0043
     20 C          25.7943   44.9237   28.1834 C.3     1  UNL1        0.0043
     21 C          27.3124   41.6234   29.1226 C.2     1  UNL1        0.0536
     22 O          28.4922   41.7695   29.3388 O.co2   1  UNL1       -0.5489
     23 O          26.4437   41.5757   30.1447 O.co2   1  UNL1       -0.5489
     24 C          29.0195   41.5616   26.3648 C.2     1  UNL1        0.2072
     25 O          29.2539   41.8956   25.2282 O.2     1  UNL1       -0.2883
     26 C          24.3161   41.3829   28.2603 C.3     1  UNL1        0.1430
     27 O          23.0800   40.7907   27.8563 O.3     1  UNL1       -0.3537
     28 C          21.9520   41.2212   28.6207 C.3     1  UNL1        0.1422
     29 C          20.8820   40.1277   28.6110 C.3     1  UNL1        0.0321
     30 C          21.4939   38.8198   28.1052 C.3     1  UNL1        0.0026
     31 C          21.5695   37.8137   29.2554 C.3     1  UNL1        0.0001
     32 C          23.6223   37.8241   30.6796 C.3     1  UNL1        0.0000
     33 C          23.0027   37.2939   29.3850 C.3     1  UNL1        0.0000
@<TRIPOS>UNITY_ATOM_ATTR
23 1
charge -1
@<TRIPOS>BOND
     1    32    33    1
     2    33    31    1
     3    31    30    1
     4    30    29    1
     5    29    28    1
     6    28    27    1
     7    27    26    1
     8    26     1    1
     9     1    13    1
    10     1    16    1
    11     1     2    1
    12     2     3    1
    13     3     7    1
    14     3     8    1
    15     3     4    1
    16     4     5    1
    17     4    12    1
    18     5     6    1
    19     6     7    1
    20     7     8    1
    21     7    11    1
    22     8     9    1
    23     8    10    1
    24    12    17    1
    25    12    13    1
    26    12    24    1
    27    13    14    1
    28    13    21    1
    29    14    15    2
    30    14    18    1
    31    15    16    1
    32    16    17    1
    33    18    19    1
    34    18    20    1
    35    21    22   ar
    36    21    23   ar
    37    24    25    2
@<TRIPOS>MOLECULE
ZINC15319570
 34 37 0 0 0
SMALL
GASTEIGER

@<TRIPOS>ATOM
      1 C          21.7248   38.8138   29.6887 C.2     1  UNL1        0.0473
      2 C          22.4045   39.8025   29.0824 C.3     1  UNL1        0.1430
      3 C          23.8578   39.6552   28.7450 C.3     1  UNL1        0.0649
      4 C          24.4839   38.5245   29.5219 C.2     1  UNL1        0.0312
      5 C          23.7150   37.5859   30.1133 C.2     1  UNL1        0.0577
      6 N          22.3505   37.6440   30.0176 N.2     1  UNL1       -0.2579
      7 C          24.3341   36.4526   30.8937 C.3     1  UNL1        0.0514
      8 C          25.7033   36.1106   30.3070 C.3     1  UNL1        0.0523
      9 C          26.5813   37.3658   30.3519 C.3     1  UNL1        0.1650
     10 C          25.8861   38.4760   29.6120 C.2     1  UNL1        0.1812
     11 O          26.5484   39.3462   29.0824 O.2     1  UNL1       -0.2910
     12 C          26.3440   35.0152   31.1194 C.ar    1  UNL1        0.0083
     13 C          26.5438   33.7151   30.7923 C.ar    1  UNL1        0.0027
     14 C          27.1599   32.8808   31.7060 C.ar    1  UNL1        0.0072
     15 C          27.5460   33.3874   32.9026 C.ar    1  UNL1        0.0351
     16 S          27.0309   35.0912   32.7656 S.2     1  UNL1       -0.0908
     17 C          23.9899   39.3746   27.2701 C.ar    1  UNL1       -0.0104
     18 C          23.6742   38.1286   26.7622 C.ar    1  UNL1        0.0036
     19 C          23.7987   37.9109   25.4300 C.ar    1  UNL1        0.0351
     20 S          24.3911   39.4923   24.8512 S.2     1  UNL1       -0.0863
     21 C          24.4253   40.3388   26.4227 C.ar    1  UNL1        0.0315
     22 C          27.9078   37.0770   29.6978 C.2     1  UNL1        0.3243
     23 O          28.9295   37.1735   30.3355 O.2     1  UNL1       -0.2496
     24 O          27.9543   36.7127   28.4068 O.3     1  UNL1       -0.4482
     25 C          28.5137   35.4060   28.1104 C.3     1  UNL1        0.2086
     26 C          27.4817   34.5698   27.3509 C.3     1  UNL1        0.0513
     27 C          21.7367   41.0069   28.7597 C.2     1  UNL1        0.3225
     28 O          20.8320   41.0018   27.9459 O.2     1  UNL1       -0.2497
     29 O          22.1028   42.1616   29.3543 O.3     1  UNL1       -0.4482
     30 C          22.5653   43.2117   28.5027 C.3     1  UNL1        0.2086
     31 C          24.0294   43.5203   28.8223 C.3     1  UNL1        0.0513
     32 C          20.2632   38.9966   30.0077 C.3     1  UNL1        0.0419
     33 C          18.6428   38.7466   31.8929 C.3     1  UNL1        0.0004
     34 C          20.0822   39.1095   31.5228 C.3     1  UNL1        0.0060
@<TRIPOS>BOND
     1    33    34    1
     2    34    32    1
     3    32     1    1
     4     1     6    2
     5     1     2    1
     6     2     3    1
     7     2    27    1
     8     3     4    1
     9     3    17    1
    10     4    10    1
    11     4     5    2
    12     5     7    1
    13     5     6    1
    14     7     8    1
    15     8     9    1
    16     8    12    1
    17     9    10    1
    18     9    22    1
    19    10    11    2
    20    22    23    2
    21    22    24    1
    22    24    25    1
    23    25    26    1
    24    12    16   ar
    25    12    13   ar
    26    13    14   ar
    27    14    15   ar
    28    15    16   ar
    29    17    21   ar
    30    17    18   ar
    31    18    19   ar
    32    19    20   ar
    33    20    21   ar
    34    27    28    2
    35    27    29    1
    36    29    30    1
    37    30    31    1
@<TRIPOS>MOLECULE
ZINC03872863
 39 40 0 0 0
SMALL
GASTEIGER

@<TRIPOS>ATOM
      1 C          25.1968   40.5257   28.2312 C.3     1  UNL1        0.1573
      2 C          25.6594   39.2203   28.8411 C.2     1  UNL1        0.1804
      3 O          26.8162   39.0944   29.1899 O.2     1  UNL1       -0.2909
      4 C          24.7640   38.1565   29.0068 C.2     1  UNL1       -0.0013
      5 C          23.4698   38.2122   28.6538 C.2     1  UNL1       -0.1096
      6 C          22.8802   39.4559   28.0292 C.3     1  UNL1        0.0606
      7 C          23.7051   40.6376   28.5218 C.2     1  UNL1        0.1654
      8 O          23.2206   41.5756   29.1081 O.2     1  UNL1       -0.2949
      9 C          23.0577   39.3609   26.5061 C.3     1  UNL1        0.0105
     10 C          24.5682   39.2100   26.2010 C.3     1  UNL1        0.0062
     11 C          25.3506   40.4228   26.7059 C.3     1  UNL1        0.0197
     12 C          26.8302   40.2611   26.3514 C.3     1  UNL1        0.0013
     13 O          22.6821   37.1399   28.8606 O.co2   1  UNL1       -0.8756
     14 C          25.9730   41.6939   28.7826 C.2     1  UNL1        0.1629
     15 O          26.7372   41.5304   29.7033 O.2     1  UNL1       -0.2952
     16 C          25.2376   44.0161   29.2466 C.3     1  UNL1        0.0078
     17 C          25.7956   43.0659   28.1851 C.3     1  UNL1        0.0585
     18 C          27.1476   43.5871   27.6941 C.3     1  UNL1        0.0078
     19 C          24.8039   41.6925   26.0504 C.3     1  UNL1        0.0059
     20 C          25.4458   41.8724   24.6732 C.3     1  UNL1        0.0254
     21 C          24.4391   41.5394   23.6024 C.2     1  UNL1       -0.0346
     22 C          24.6826   40.5730   22.7522 C.2     1  UNL1       -0.0478
     23 C          26.0182   39.8752   22.7670 C.3     1  UNL1        0.0260
     24 C          23.6272   40.1592   21.7593 C.3     1  UNL1        0.0260
     25 C          25.0927   37.9475   26.8881 C.3     1  UNL1        0.0254
     26 C          25.3340   36.8769   25.8554 C.2     1  UNL1       -0.0346
     27 C          26.4674   36.2201   25.8452 C.2     1  UNL1       -0.0478
     28 C          27.5817   36.6258   26.7753 C.3     1  UNL1        0.0260
     29 C          26.6570   35.0589   24.9036 C.3     1  UNL1        0.0260
     30 C          21.4056   39.6163   28.4043 C.3     1  UNL1        0.0352
     31 C          21.2883   39.8634   29.8863 C.2     1  UNL1       -0.0339
     32 C          20.3397   39.2784   30.5748 C.2     1  UNL1       -0.0478
     33 C          19.3846   38.3346   29.8906 C.3     1  UNL1        0.0260
     34 C          20.2034   39.5493   32.0510 C.3     1  UNL1        0.0260
     35 C          25.2817   36.8784   29.6145 C.3     1  UNL1        0.0530
     36 C          25.0057   36.8788   31.0961 C.2     1  UNL1       -0.0298
     37 C          25.2789   35.8172   31.8136 C.2     1  UNL1       -0.0475
     38 C          25.8844   34.6016   31.1602 C.3     1  UNL1        0.0260
     39 C          24.9878   35.8118   33.2921 C.3     1  UNL1        0.0260
@<TRIPOS>UNITY_ATOM_ATTR
13 1
charge -1
@<TRIPOS>BOND
     1    16    17    1
     2    17    18    1
     3    17    14    1
     4    14    15    2
     5    14     1    1
     6     1     7    1
     7     1    11    1
     8     1     2    1
     9     2     3    2
    10     2     4    1
    11     4     5    2
    12     4    35    1
    13     5     6    1
    14     5    13    1
    15     6     7    1
    16     6     9    1
    17     6    30    1
    18     7     8    2
    19     9    10    1
    20    10    11    1
    21    10    25    1
    22    11    12    1
    23    11    19    1
    24    19    20    1
    25    20    21    1
    26    21    22    2
    27    22    23    1
    28    22    24    1
    29    25    26    1
    30    26    27    2
    31    27    28    1
    32    27    29    1
    33    30    31    1
    34    31    32    2
    35    32    33    1
    36    32    34    1
    37    35    36    1
    38    36    37    2
    39    37    38    1
    40    37    39    1
@<TRIPOS>MOLECULE
ZINC05940652
 37 41 0 0 0
SMALL
GASTEIGER

@<TRIPOS>ATOM
      1 C          24.1596   39.1860   27.8032 C.3     1  UNL1        0.0710
      2 C          25.3502   40.1737   27.7301 C.3     1  UNL1        0.0250
      3 C          25.1549   41.2612   28.8022 C.3     1  UNL1        0.0021
      4 C          24.8518   42.5744   28.0509 C.3     1  UNL1        0.0017
      5 C          24.2720   42.1118   26.6903 C.3     1  UNL1        0.0184
      6 C          25.0971   40.8557   26.3708 C.3     1  UNL1        0.0653
      7 C          26.3715   41.1869   25.6213 C.3     1  UNL1        0.0745
      8 C          26.0518   41.7975   24.2566 C.3     1  UNL1        0.1904
      9 C          24.6565   41.4475   23.7563 C.3     1  UNL1        0.0777
     10 C          24.2471   40.0179   24.1117 C.3     1  UNL1        0.0983
     11 N          24.3116   39.8981   25.5793 N.am    1  UNL1       -0.2824
     12 C          23.7632   38.9608   26.3586 C.2     1  UNL1        0.2247
     13 O          23.0515   38.0606   25.9661 O.2     1  UNL1       -0.2749
     14 O          26.1663   43.2312   24.3573 O.3     1  UNL1       -0.3315
     15 C          27.5255   43.5249   23.9569 C.3     1  UNL1        0.1767
     16 C          27.7531   42.4828   22.8341 C.3     1  UNL1        0.1767
     17 O          27.0230   41.3329   23.3035 O.3     1  UNL1       -0.3315
     18 C          24.5943   37.8689   28.4491 C.3     1  UNL1        0.0155
     19 C          25.6798   37.2145   27.5922 C.3     1  UNL1        0.0009
     20 C          25.1468   38.1452   29.8489 C.3     1  UNL1        0.0650
     21 C          24.3776   37.3363   30.8612 C.2     1  UNL1        0.1507
     22 O          23.4616   37.8396   31.4663 O.2     1  UNL1       -0.2961
     23 C          24.7513   35.8993   31.1186 C.3     1  UNL1        0.0645
     24 C          26.7849   35.5213   32.5201 C.3     1  UNL1        0.0004
     25 C          26.2744   35.7566   31.0970 C.3     1  UNL1        0.0073
     26 C          26.6631   34.5697   30.2131 C.3     1  UNL1        0.0004
     27 C          22.9993   39.8053   28.5849 C.3     1  UNL1        0.0112
     28 C          21.8209   38.8297   28.6067 C.3     1  UNL1        0.0326
     29 C          20.5148   39.6034   28.4155 C.3     1  UNL1        0.1426
     30 O          19.5047   39.0491   29.2608 O.3     1  UNL1       -0.3490
     31 C          20.0172   38.3190   30.3771 C.3     1  UNL1        0.1686
     32 C          19.5209   38.9426   31.6561 C.ar    1  UNL1        0.0073
     33 C          20.4222   39.4550   32.5704 C.ar    1  UNL1       -0.0019
     34 C          19.9667   40.0312   33.7416 C.ar    1  UNL1       -0.0002
     35 C          18.6104   40.0862   34.0027 C.ar    1  UNL1       -0.0000
     36 C          17.7093   39.5694   33.0906 C.ar    1  UNL1       -0.0002
     37 C          18.1646   38.9973   31.9175 C.ar    1  UNL1       -0.0019
@<TRIPOS>BOND
     1    24    25    1
     2    25    26    1
     3    25    23    1
     4    23    21    1
     5    21    22    2
     6    21    20    1
     7    20    18    1
     8    18    19    1
     9    18     1    1
    10     1    12    1
    11     1     2    1
    12     1    27    1
    13     2     6    1
    14     2     3    1
    15     3     4    1
    16     4     5    1
    17     5     6    1
    18     6    11    1
    19     6     7    1
    20     7     8    1
    21     8    17    1
    22     8     9    1
    23     8    14    1
    24     9    10    1
    25    10    11    1
    26    11    12   am
    27    12    13    2
    28    14    15    1
    29    15    16    1
    30    16    17    1
    31    27    28    1
    32    28    29    1
    33    29    30    1
    34    30    31    1
    35    31    32    1
    36    32    37   ar
    37    32    33   ar
    38    33    34   ar
    39    34    35   ar
    40    35    36   ar
    41    36    37   ar
@<TRIPOS>MOLECULE
ZINC11926938
 34 37 0 0 0
SMALL
GASTEIGER

@<TRIPOS>ATOM
      1 S          21.2780   38.7287   28.2993 S.O2    1  UNL1       -0.0548
      2 O          20.9467   40.0877   28.5490 O.2     1  UNL1       -0.1841
      3 O          21.4063   38.2049   26.9845 O.2     1  UNL1       -0.1841
      4 C          22.8110   38.4262   29.1136 C.ar    1  UNL1        0.1277
      5 C          23.0449   37.4710   30.0392 C.ar    1  UNL1        0.1139
      6 N          24.3367   37.5669   30.4213 N.ar    1  UNL1       -0.2436
      7 N          24.9289   38.6123   29.7012 N.ar    1  UNL1       -0.1671
      8 C          24.0132   39.1346   28.9106 C.ar    1  UNL1        0.1240
      9 C          24.2113   40.2636   27.9757 C.ar    1  UNL1        0.0501
     10 C          24.2195   41.6073   28.2358 C.ar    1  UNL1        0.0086
     11 C          24.4297   42.4829   27.1921 C.ar    1  UNL1        0.0075
     12 C          24.6111   41.9890   25.9410 C.ar    1  UNL1        0.0355
     13 S          24.4942   40.2285   26.2132 S.2     1  UNL1       -0.0848
     14 C          25.0048   36.7202   31.4128 C.3     1  UNL1        0.1539
     15 C          25.7597   35.6223   30.7088 C.ar    1  UNL1        0.0021
     16 C          25.8897   34.3814   31.3040 C.ar    1  UNL1       -0.0023
     17 C          26.5823   33.3743   30.6584 C.ar    1  UNL1       -0.0003
     18 C          27.1492   33.6096   29.4197 C.ar    1  UNL1       -0.0000
     19 C          27.0147   34.8488   28.8221 C.ar    1  UNL1       -0.0003
     20 C          26.3218   35.8558   29.4677 C.ar    1  UNL1       -0.0023
     21 N          20.1288   37.8132   29.0633 N.pl3   1  UNL1       -0.5357
     22 C          17.9283   39.4322   32.1962 C.ar    1  UNL1        0.0755
     23 C          19.3196   39.3300   32.2964 C.ar    1  UNL1        0.0046
     24 C          20.0424   38.7953   31.2611 C.ar    1  UNL1       -0.0236
     25 C          19.3928   38.3544   30.1111 C.ar    1  UNL1       -0.1123
     26 C          18.0084   38.4595   30.0061 C.ar    1  UNL1       -0.0236
     27 C          17.2791   38.9884   31.0397 C.ar    1  UNL1        0.0046
     28 C          17.1482   40.0059   33.3072 C.2     1  UNL1        0.3412
     29 O          16.1656   39.4247   33.7233 O.2     1  UNL1       -0.2449
     30 O          17.5246   41.1751   33.8616 O.3     1  UNL1       -0.4454
     31 C          18.2537   41.1057   35.1155 C.3     1  UNL1        0.2088
     32 C          19.6478   41.7076   34.9288 C.3     1  UNL1        0.0475
     33 C          20.0245   39.3358   35.6177 C.3     1  UNL1        0.0001
     34 C          20.7050   40.6242   35.1512 C.3     1  UNL1        0.0038
@<TRIPOS>UNITY_ATOM_ATTR
21 1
charge -1
@<TRIPOS>BOND
     1    33    34    1
     2    34    32    1
     3    32    31    1
     4    31    30    1
     5    30    28    1
     6    28    29    2
     7    28    22    1
     8    22    27   ar
     9    22    23   ar
    10    23    24   ar
    11    24    25   ar
    12    25    26   ar
    13    25    21    1
    14    26    27   ar
    15    21     1    1
    16     1     2    2
    17     1     3    2
    18     1     4    1
    19     4     8   ar
    20     4     5   ar
    21     5     6   ar
    22     6     7   ar
    23     6    14    1
    24     7     8   ar
    25     8     9    1
    26     9    13   ar
    27     9    10   ar
    28    10    11   ar
    29    11    12   ar
    30    12    13   ar
    31    14    15    1
    32    15    20   ar
    33    15    16   ar
    34    16    17   ar
    35    17    18   ar
    36    18    19   ar
    37    19    20   ar
@<TRIPOS>MOLECULE
ZINC02075931
 41 45 0 0 0
SMALL
GASTEIGER

@<TRIPOS>ATOM
      1 C          26.8392   37.1241   25.8189 C.ar    1  UNL1        0.1716
      2 C          26.0917   38.2047   25.3791 C.ar    1  UNL1        0.0361
      3 C          25.1447   38.7741   26.2101 C.ar    1  UNL1       -0.0145
      4 C          24.9339   38.2609   27.4764 C.ar    1  UNL1       -0.0047
      5 C          25.6729   37.1800   27.9194 C.ar    1  UNL1        0.0189
      6 C          26.6274   36.6080   27.0936 C.ar    1  UNL1        0.1690
      7 C          24.3363   39.9525   25.7322 C.3     1  UNL1        0.0651
      8 C          24.2160   40.9813   26.8517 C.2     1  UNL1        0.0390
      9 C          25.5858   41.6192   27.0277 C.2     1  UNL1        0.0800
     10 N          26.3188   42.0106   26.0189 N.2     1  UNL1       -0.2536
     11 C          25.9262   41.6914   24.7723 C.2     1  UNL1        0.0480
     12 C          24.9867   40.7458   24.5371 C.3     1  UNL1        0.1430
     13 C          26.5508   42.4081   23.6031 C.3     1  UNL1        0.0478
     14 C          25.8404   41.6723   28.4553 C.ar    1  UNL1        0.0205
     15 C          26.2781   43.8626   28.1047 C.ar    1  UNL1        0.0016
     16 C          25.8209   44.8742   28.9362 C.ar    1  UNL1        0.0001
     17 C          24.5479   44.8640   29.4740 C.ar    1  UNL1        0.0001
     18 C          23.6415   43.8485   29.2024 C.ar    1  UNL1        0.0032
     19 C          24.0670   42.8254   28.3495 C.ar    1  UNL1        0.0401
     20 C          23.3335   41.6529   27.8703 C.2     1  UNL1        0.1934
     21 O          22.2310   41.2929   28.2241 O.2     1  UNL1       -0.2868
     22 C          24.6225   40.4421   23.2035 C.2     1  UNL1        0.3226
     23 O          25.3944   39.8355   22.4849 O.2     1  UNL1       -0.2497
     24 O          23.4186   40.8256   22.7289 O.3     1  UNL1       -0.4441
     25 C          22.8586   40.0433   21.6723 C.3     1  UNL1        0.2556
     26 O          27.7747   36.5661   25.0046 O.3     1  UNL1       -0.4724
     27 C          29.6330   37.8699   24.1753 C.3     1  UNL1        0.0512
     28 C          28.2211   37.3504   23.8965 C.3     1  UNL1        0.2057
     29 O          27.3549   35.5443   27.5277 O.3     1  UNL1       -0.4679
     30 C          27.0718   34.2774   26.9303 C.3     1  UNL1        0.2328
     31 C          27.1006   33.2051   27.9890 C.ar    1  UNL1        0.0308
     32 C          27.1530   33.5520   29.3233 C.ar    1  UNL1       -0.0000
     33 C          27.1752   32.5691   30.2964 C.ar    1  UNL1       -0.0002
     34 C          27.1544   31.2323   29.9392 C.ar    1  UNL1        0.0007
     35 C          27.1073   30.8713   28.6089 C.ar    1  UNL1        0.0101
     36 C          27.0799   31.8585   27.6215 C.ar    1  UNL1        0.0679
     37 C          27.0314   31.4909   26.2383 C.1     1  UNL1        0.1002
     38 N          26.9930   31.1994   25.1410 N.1     1  UNL1       -0.1908
     39 C          25.4411   36.6239   29.3009 C.3     1  UNL1        0.0555
     40 C          24.9020   37.7101   30.1957 C.2     1  UNL1       -0.0213
     41 C          23.6774   37.6332   30.6544 C.2     1  UNL1       -0.0046
@<TRIPOS>BOND
     1    27    28    1
     2    28    26    1
     3    26     1    1
     4     1     6   ar
     5     1     2   ar
     6     2     3   ar
     7     3     4   ar
     8     3     7    1
     9     4     5   ar
    10     5     6   ar
    11     5    39    1
    12     6    29    1
    13    29    30    1
    14    30    31    1
    15    31    36   ar
    16    31    32   ar
    17    32    33   ar
    18    33    34   ar
    19    34    35   ar
    20    35    36   ar
    21    36    37    1
    22    37    38    3
    23    39    40    1
    24    40    41    2
    25     7    12    1
    26     7     8    1
    27     8    20    1
    28     8     9    2
    29     9    14    1
    30     9    10    1
    31    10    11    2
    32    11    13    1
    33    11    12    1
    34    12    22    1
    35    22    23    2
    36    22    24    1
    37    24    25    1
    38    14    19   ar
    39    14    15   ar
    40    15    16   ar
    41    16    17   ar
    42    17    18   ar
    43    18    19   ar
    44    19    20    1
    45    20    21    2
@<TRIPOS>MOLECULE
ZINC09425294
 32 35 0 0 0
SMALL
GASTEIGER

@<TRIPOS>ATOM
      1 C          24.3903   40.8602   27.4104 C.ar    1  UNL1        0.1167
      2 C          24.4086   40.7107   26.0290 C.ar    1  UNL1        0.0721
      3 C          25.0217   41.6631   25.2088 C.ar    1  UNL1        0.0930
      4 C          24.9738   41.3932   23.7593 C.ar    1  UNL1        0.0378
      5 C          25.5060   42.1813   22.7157 C.ar    1  UNL1       -0.0216
      6 C          25.3664   41.7603   21.4128 C.ar    1  UNL1       -0.0124
      7 C          24.6973   40.5752   21.1381 C.ar    1  UNL1        0.0552
      8 N          24.2022   39.8435   22.1167 N.ar    1  UNL1       -0.2434
      9 C          24.3187   40.2090   23.3756 C.ar    1  UNL1        0.1115
     10 S          23.7860   39.4874   24.9085 S.2     1  UNL1       -0.0644
     11 C          26.0097   42.7659   20.4815 C.3     1  UNL1        0.0276
     12 C          26.1814   44.0481   21.3244 C.3     1  UNL1        0.0094
     13 C          26.2579   43.4906   22.7626 C.3     1  UNL1        0.0265
     14 N          25.5857   42.7190   25.8396 N.ar    1  UNL1       -0.2206
     15 C          25.5514   42.8318   27.1506 C.ar    1  UNL1        0.1905
     16 N          24.9724   41.9355   27.9399 N.ar    1  UNL1       -0.2143
     17 S          26.3092   44.2389   27.8925 S.3     1  UNL1       -0.0748
     18 C          27.3571   44.7900   26.5235 C.3     1  UNL1        0.0772
     19 S          23.6150   39.6566   28.4376 S.3     1  UNL1       -0.0864
     20 C          21.8783   40.0984   28.1837 C.3     1  UNL1        0.1284
     21 C          21.0418   38.8454   28.1441 C.2     1  UNL1        0.1731
     22 O          20.5570   38.4758   27.1017 O.2     1  UNL1       -0.2945
     23 C          20.8103   38.0539   29.4055 C.3     1  UNL1        0.1746
     24 C          19.6297   38.6255   30.1475 C.2     1  UNL1        0.3246
     25 O          18.5207   38.5403   29.6757 O.2     1  UNL1       -0.2496
     26 O          19.8103   39.2294   31.3326 O.3     1  UNL1       -0.4482
     27 C          18.0933   39.8426   32.9470 C.3     1  UNL1        0.0513
     28 C          19.0258   38.7359   32.4503 C.3     1  UNL1        0.2086
     29 C          24.5409   40.1184   19.7104 C.3     1  UNL1        0.0455
     30 C          25.0249   38.6728   19.5816 C.3     1  UNL1        0.0059
     31 C          24.5321   38.0861   18.2572 C.3     1  UNL1        0.0004
     32 C          26.5543   38.6420   19.6154 C.3     1  UNL1        0.0004
@<TRIPOS>BOND
     1    27    28    1
     2    28    26    1
     3    26    24    1
     4    24    25    2
     5    24    23    1
     6    23    21    1
     7    21    22    2
     8    21    20    1
     9    20    19    1
    10    19     1    1
    11     1    16   ar
    12     1     2   ar
    13     2    10   ar
    14     2     3   ar
    15     3     4   ar
    16     3    14   ar
    17     4     9   ar
    18     4     5   ar
    19     5    13    1
    20     5     6   ar
    21     6     7   ar
    22     6    11    1
    23     7     8   ar
    24     7    29    1
    25     8     9   ar
    26     9    10   ar
    27    29    30    1
    28    30    31    1
    29    30    32    1
    30    11    12    1
    31    12    13    1
    32    14    15   ar
    33    15    16   ar
    34    15    17    1
    35    17    18    1
@<TRIPOS>MOLECULE
ZINC17005976
 38 42 0 0 0
SMALL
GASTEIGER

@<TRIPOS>ATOM
      1 C          26.3841   37.5655   29.0567 C.ar    1  UNL1        0.0722
      2 C          27.1712   36.8095   28.2389 C.ar    1  UNL1        0.0805
      3 N          27.2633   35.5495   28.7281 N.ar    1  UNL1       -0.3245
      4 C          26.5271   35.4284   29.8885 C.ar    1  UNL1        0.0601
      5 C          25.9436   36.6788   30.1493 C.ar    1  UNL1        0.0216
      6 C          25.1370   36.8528   31.2707 C.ar    1  UNL1        0.0016
      7 C          24.9146   35.7923   32.1221 C.ar    1  UNL1        0.0001
      8 C          25.4901   34.5566   31.8660 C.ar    1  UNL1        0.0015
      9 C          26.2906   34.3704   30.7599 C.ar    1  UNL1        0.0172
     10 C          24.7200   40.7198   27.5886 C.3     1  UNL1        0.1072
     11 C          24.0363   40.4985   26.2161 C.3     1  UNL1        0.1636
     12 O          23.3441   39.2432   26.4093 O.3     1  UNL1       -0.3399
     13 C          24.2209   38.4391   27.2159 C.3     1  UNL1        0.1554
     14 N          25.0921   39.3390   27.9889 N.am    1  UNL1       -0.2563
     15 C          26.0381   38.9823   28.8803 C.2     1  UNL1        0.2521
     16 O          26.6053   39.8337   29.5389 O.2     1  UNL1       -0.2698
     17 C          25.0735   37.5429   26.3154 C.3     1  UNL1        0.0510
     18 C          26.6064   41.3472   26.0752 C.3     1  UNL1        0.0018
     19 C          25.9623   41.6004   27.4397 C.3     1  UNL1        0.0225
     20 C          23.3955   37.5739   28.1705 C.3     1  UNL1        0.0468
     21 C          21.9159   37.6663   27.7922 C.3     1  UNL1        0.0042
     22 C          21.1273   38.2628   28.9597 C.3     1  UNL1        0.0001
     23 C          22.0207   38.3239   30.2003 C.3     1  UNL1        0.0000
     24 C          20.6648   39.6747   28.5942 C.3     1  UNL1        0.0000
     25 C          28.0313   34.4665   28.1086 C.3     1  UNL1        0.1236
     26 C          27.0714   33.4661   27.4615 C.3     1  UNL1        0.1017
     27 C          27.1286   32.1208   28.2155 C.3     1  UNL1        0.0212
     28 C          27.0220   31.0770   27.0725 C.3     1  UNL1        0.0206
     29 C          27.8121   31.7762   25.9381 C.3     1  UNL1        0.0955
     30 N          27.4807   33.2063   26.0735 N.3     1  UNL1       -0.1590
     31 S          27.5563   34.3333   24.8626 S.O2    1  UNL1        0.0421
     32 O          26.2396   34.8606   24.7754 O.2     1  UNL1       -0.1573
     33 O          28.6500   35.1699   25.2135 O.2     1  UNL1       -0.1573
     34 C          27.9498   33.3850   23.3671 C.3     1  UNL1        0.1458
     35 C          29.0874   34.0760   22.5873 C.3     1  UNL1        0.0252
     36 C          28.7097   33.8647   21.0993 C.3     1  UNL1        0.0019
     37 C          27.1688   34.0216   21.1113 C.3     1  UNL1        0.0019
     38 C          26.7305   33.3499   22.4291 C.3     1  UNL1        0.0252
@<TRIPOS>BOND
     1    18    19    1
     2    19    10    1
     3    10    14    1
     4    10    11    1
     5    11    12    1
     6    12    13    1
     7    13    14    1
     8    13    17    1
     9    13    20    1
    10    14    15   am
    11    15    16    2
    12    15     1    1
    13     1     5   ar
    14     1     2   ar
    15     2     3   ar
    16     3     4   ar
    17     3    25    1
    18     4     9   ar
    19     4     5   ar
    20     5     6   ar
    21     6     7   ar
    22     7     8   ar
    23     8     9   ar
    24    25    26    1
    25    26    30    1
    26    26    27    1
    27    27    28    1
    28    28    29    1
    29    29    30    1
    30    30    31    1
    31    31    32    2
    32    31    33    2
    33    31    34    1
    34    34    38    1
    35    34    35    1
    36    35    36    1
    37    36    37    1
    38    37    38    1
    39    20    21    1
    40    21    22    1
    41    22    23    1
    42    22    24    1
@<TRIPOS>MOLECULE
ZINC02062317
 38 41 0 0 0
SMALL
GASTEIGER

@<TRIPOS>ATOM
      1 C          24.0842   39.9932   21.7984 C.2     1  UNL1        0.0113
      2 C          24.7218   40.8578   22.6304 C.ar    1  UNL1        0.0884
      3 C          24.6030   41.0115   24.0863 C.ar    1  UNL1        0.2688
      4 O          23.8480   40.3072   24.7314 O.2     1  UNL1       -0.2664
      5 N          25.3494   41.9499   24.6829 N.ar    1  UNL1       -0.2689
      6 C          26.1861   42.7192   23.9075 C.ar    1  UNL1        0.1779
      7 N          26.9608   43.6632   24.3795 N.2     1  UNL1       -0.2267
      8 C          27.0450   44.0045   25.6591 C.2     1  UNL1        0.0658
      9 C          26.2927   43.3605   26.6012 C.2     1  UNL1        0.0917
     10 C          25.3694   42.2560   26.1409 C.3     1  UNL1        0.1428
     11 C          27.9775   45.1122   26.0770 C.3     1  UNL1        0.0521
     12 S          25.9375   42.1100   22.2513 S.2     1  UNL1       -0.0455
     13 C          25.2976   39.6639   17.7543 C.ar    1  UNL1        0.0478
     14 C          24.6065   40.7947   18.1817 C.ar    1  UNL1        0.0145
     15 C          24.2158   40.9079   19.4909 C.ar    1  UNL1        0.0013
     16 C          24.5042   39.8789   20.3971 C.ar    1  UNL1        0.0007
     17 C          25.1994   38.7428   19.9623 C.ar    1  UNL1        0.0013
     18 C          25.5901   38.6407   18.6522 C.ar    1  UNL1        0.0145
     19 N          25.6968   39.5559   16.4254 N.pl3   1  UNL1       -0.3075
     20 C          23.9276   38.3552   15.2381 C.3     1  UNL1        0.0232
     21 C          24.7065   39.6673   15.3517 C.3     1  UNL1        0.0908
     22 C          27.1076   39.3311   16.1003 C.3     1  UNL1        0.0908
     23 C          27.9025   40.6108   16.3669 C.3     1  UNL1        0.0232
     24 C          25.7532   40.9964   26.8738 C.ar    1  UNL1        0.0060
     25 C          26.9587   40.3782   26.5983 C.ar    1  UNL1        0.0012
     26 C          27.3157   39.2231   27.2686 C.ar    1  UNL1        0.0398
     27 C          26.4643   38.6821   28.2187 C.ar    1  UNL1        0.1724
     28 C          25.2508   39.3041   28.4957 C.ar    1  UNL1        0.1721
     29 C          24.9016   40.4649   27.8244 C.ar    1  UNL1        0.0379
     30 O          24.4119   38.7770   29.4273 O.3     1  UNL1       -0.4684
     31 C          23.0215   38.7375   29.0999 C.3     1  UNL1        0.2526
     32 O          26.8143   37.5461   28.8793 O.3     1  UNL1       -0.4684
     33 C          26.4830   36.3042   28.2548 C.3     1  UNL1        0.2526
     34 C          26.3751   43.7150   27.9577 C.2     1  UNL1        0.3404
     35 O          27.2385   43.2252   28.6637 O.2     1  UNL1       -0.2451
     36 O          25.4971   44.5990   28.4793 O.3     1  UNL1       -0.4456
     37 C          24.6184   44.1165   29.4977 C.3     1  UNL1        0.2089
     38 C          23.2355   43.8563   28.8967 C.3     1  UNL1        0.0513
@<TRIPOS>BOND
     1    20    21    1
     2    21    19    1
     3    19    22    1
     4    19    13    1
     5    22    23    1
     6    13    18   ar
     7    13    14   ar
     8    14    15   ar
     9    15    16   ar
    10    16    17   ar
    11    16     1    1
    12    17    18   ar
    13     1     2    2
    14     2    12   ar
    15     2     3   ar
    16     3     4    2
    17     3     5   ar
    18     5    10    1
    19     5     6   ar
    20     6     7    2
    21     6    12   ar
    22     7     8    1
    23     8     9    2
    24     8    11    1
    25     9    10    1
    26     9    34    1
    27    10    24    1
    28    24    29   ar
    29    24    25   ar
    30    25    26   ar
    31    26    27   ar
    32    27    28   ar
    33    27    32    1
    34    28    29   ar
    35    28    30    1
    36    30    31    1
    37    32    33    1
    38    34    35    2
    39    34    36    1
    40    36    37    1
    41    37    38    1
@<TRIPOS>MOLECULE
ZINC15780918
 39 43 0 0 0
SMALL
GASTEIGER

@<TRIPOS>ATOM
      1 N          20.4514   49.5650   22.3599 N.2     1  UNL1       -0.2253
      2 C          20.4656   50.5966   23.1352 C.2     1  UNL1        0.1952
      3 N          20.3556   50.4344   24.5038 N.ar    1  UNL1       -0.1914
      4 C          21.3789   50.1586   25.3868 C.ar    1  UNL1        0.1053
      5 C          22.7474   49.9623   25.2476 C.ar    1  UNL1        0.0208
      6 C          23.5154   49.6965   26.3597 C.ar    1  UNL1        0.0016
      7 C          22.9306   49.6242   27.6173 C.ar    1  UNL1        0.0017
      8 C          21.5884   49.8140   27.7740 C.ar    1  UNL1        0.0225
      9 C          20.7861   50.0851   26.6587 C.ar    1  UNL1        0.1222
     10 N          19.4597   50.3129   26.5061 N.ar    1  UNL1       -0.1284
     11 N          19.1826   50.5240   25.2678 N.ar    1  UNL1       -0.0583
     12 C          20.6888   49.7251   20.9232 C.3     1  UNL1        0.2817
     13 S          21.7076   48.3500   20.3217 S.O2    1  UNL1        0.0319
     14 O          20.9433   47.5127   19.4650 O.2     1  UNL1       -0.1667
     15 O          22.4628   47.7964   21.3906 O.2     1  UNL1       -0.1667
     16 C          25.8029   50.9175   16.7103 C.3     1  UNL1        0.0310
     17 C          24.7800   50.2762   17.6124 C.ar    1  UNL1       -0.0218
     18 C          25.1088   49.1452   18.3358 C.ar    1  UNL1       -0.0029
     19 C          24.1707   48.5569   19.1633 C.ar    1  UNL1        0.0181
     20 C          22.9037   49.1000   19.2675 C.ar    1  UNL1        0.1078
     21 C          22.5749   50.2311   18.5440 C.ar    1  UNL1        0.0181
     22 C          23.5131   50.8193   17.7166 C.ar    1  UNL1       -0.0029
     23 C          20.6019   51.9780   22.5487 C.3     1  UNL1        0.1725
     24 N          21.9926   52.4399   22.7419 N.4     1  UNL1        0.2885
     25 H          22.5083   51.7299   23.2618 H       1  UNL1        0.2079
     26 C          22.6443   52.6427   21.4308 C.3     1  UNL1        0.1336
     27 C          23.9823   51.9494   21.4435 C.ar    1  UNL1        0.0327
     28 C          24.1608   50.8055   22.1988 C.ar    1  UNL1        0.0014
     29 C          25.3867   50.1668   22.2067 C.ar    1  UNL1       -0.0001
     30 C          26.4370   50.6777   21.4671 C.ar    1  UNL1       -0.0000
     31 C          26.2601   51.8246   20.7162 C.ar    1  UNL1       -0.0001
     32 C          25.0326   52.4604   20.7042 C.ar    1  UNL1        0.0014
     33 C          22.0035   53.7015   23.5119 C.3     1  UNL1        0.1336
     34 C          22.7930   53.5364   24.7849 C.ar    1  UNL1        0.0327
     35 C          22.1442   53.5369   26.0055 C.ar    1  UNL1        0.0014
     36 C          22.8678   53.3807   27.1729 C.ar    1  UNL1       -0.0001
     37 C          24.2413   53.2340   27.1203 C.ar    1  UNL1       -0.0000
     38 C          24.8908   53.2391   25.9001 C.ar    1  UNL1       -0.0001
     39 C          24.1666   53.3900   24.7323 C.ar    1  UNL1        0.0014
@<TRIPOS>UNITY_ATOM_ATTR
24 1
charge 1
@<TRIPOS>BOND
     1    16    17    1
     2    17    22   ar
     3    17    18   ar
     4    18    19   ar
     5    19    20   ar
     6    20    21   ar
     7    20    13    1
     8    21    22   ar
     9    13    14    2
    10    13    15    2
    11    13    12    1
    12    12     1    1
    13     1     2    2
    14     2    23    1
    15     2     3    1
    16    23    24    1
    17    26    27    1
    18    26    24    1
    19    27    32   ar
    20    27    28   ar
    21    28    29   ar
    22    29    30   ar
    23    30    31   ar
    24    31    32   ar
    25    33    34    1
    26    33    24    1
    27    34    39   ar
    28    34    35   ar
    29    35    36   ar
    30    36    37   ar
    31    37    38   ar
    32    38    39   ar
    33     3    11   ar
    34     3     4   ar
    35     4     9   ar
    36     4     5   ar
    37     5     6   ar
    38     6     7   ar
    39     7     8   ar
    40     8     9   ar
    41     9    10   ar
    42    10    11   ar
    43    24    25    1
@<TRIPOS>MOLECULE
ZINC09078666
 33 35 0 0 0
SMALL
GASTEIGER

@<TRIPOS>ATOM
      1 C          27.1188   35.4474   29.7080 C.2     1  UNL1        0.2707
      2 O          27.5110   35.8301   30.7967 O.2     1  UNL1       -0.2679
      3 N          24.9021   37.8572   28.1933 N.ar    1  UNL1       -0.3030
      4 C          23.6755   38.3873   28.5554 C.ar    1  UNL1        0.0955
      5 C          22.9025   39.3418   27.8715 C.ar    1  UNL1        0.1586
      6 C          21.6940   39.7625   28.3784 C.ar    1  UNL1        0.0608
      7 C          21.2033   39.2602   29.5745 C.ar    1  UNL1        0.1430
      8 C          21.9413   38.3109   30.2625 C.ar    1  UNL1        0.0378
      9 C          23.1514   37.8945   29.7582 C.ar    1  UNL1        0.0523
     10 S          24.3927   36.7492   30.3046 S.2     1  UNL1       -0.0512
     11 C          25.5089   36.9386   28.9912 C.ar    1  UNL1        0.1677
     12 N          26.6769   36.3315   28.8083 N.am    1  UNL1       -0.1520
     13 F          20.0151   39.6842   30.0577 F       1  UNL1       -0.2041
     14 F          23.3510   39.8522   26.7038 F       1  UNL1       -0.2026
     15 C          25.5495   38.2907   26.9527 C.3     1  UNL1        0.1343
     16 C          26.6548   40.4062   26.4389 C.2     1  UNL1       -0.0029
     17 C          26.5336   39.3906   27.2574 C.2     1  UNL1       -0.0017
     18 C          27.1318   34.0025   29.3822 C.ar    1  UNL1        0.0555
     19 C          27.1721   33.0545   30.4044 C.ar    1  UNL1        0.0059
     20 C          27.1791   31.7100   30.0947 C.ar    1  UNL1        0.0201
     21 C          27.1564   31.3016   28.7731 C.ar    1  UNL1        0.1222
     22 C          27.1216   32.2372   27.7544 C.ar    1  UNL1        0.0201
     23 C          27.1095   33.5845   28.0516 C.ar    1  UNL1        0.0059
     24 S          27.1724   29.5828   28.3854 S.O2    1  UNL1        0.0639
     25 O          26.1154   29.3652   27.4609 O.2     1  UNL1       -0.1528
     26 O          28.5214   29.2448   28.0937 O.2     1  UNL1       -0.1528
     27 N          26.7680   28.7654   29.7677 N.3     1  UNL1       -0.1466
     28 C          25.3955   28.8220   30.2772 C.3     1  UNL1        0.1222
     29 C          24.7647   27.4573   30.1741 C.2     1  UNL1       -0.0071
     30 C          23.5504   27.3311   29.6992 C.2     1  UNL1       -0.0034
     31 C          27.7826   27.9856   30.4810 C.3     1  UNL1        0.1222
     32 C          27.9159   28.5040   31.8898 C.2     1  UNL1       -0.0071
     33 C          27.8606   27.6734   32.9013 C.2     1  UNL1       -0.0034
@<TRIPOS>BOND
     1    16    17    2
     2    17    15    1
     3    15     3    1
     4     3    11   ar
     5     3     4   ar
     6     4     9   ar
     7     4     5   ar
     8     5     6   ar
     9     5    14    1
    10     6     7   ar
    11     7     8   ar
    12     7    13    1
    13     8     9   ar
    14     9    10   ar
    15    10    11   ar
    16    11    12    2
    17    12     1    1
    18     1     2    2
    19     1    18    1
    20    18    23   ar
    21    18    19   ar
    22    19    20   ar
    23    20    21   ar
    24    21    22   ar
    25    21    24    1
    26    22    23   ar
    27    24    25    2
    28    24    26    2
    29    24    27    1
    30    27    28    1
    31    27    31    1
    32    28    29    1
    33    29    30    2
    34    31    32    1
    35    32    33    2
@<TRIPOS>MOLECULE
ZINC02185962
 32 35 0 0 0
SMALL
GASTEIGER

@<TRIPOS>ATOM
      1 C          17.1958   40.7953   33.2641 C.ar    1  UNL1        0.2138
      2 N          17.4273   41.1851   34.4925 N.ar    1  UNL1       -0.1198
      3 N          18.6390   40.9018   34.8230 N.ar    1  UNL1       -0.1194
      4 C          19.2378   40.3300   33.8261 C.ar    1  UNL1        0.2194
      5 N          18.3564   40.2275   32.7743 N.ar    1  UNL1       -0.1795
      6 N          18.8403   39.6327   31.6168 N.ar    1  UNL1       -0.1484
      7 C          20.0703   39.1981   31.5416 C.ar    1  UNL1        0.1596
      8 S          20.7103   39.5934   33.1615 S.2     1  UNL1       -0.0199
      9 S          15.6767   40.9707   32.3887 S.3     1  UNL1       -0.0691
     10 C          14.8439   39.3775   32.6311 C.3     1  UNL1        0.0914
     11 C          13.7537   37.7460   28.8316 C.ar    1  UNL1        0.0756
     12 C          15.0578   38.1920   29.0551 C.ar    1  UNL1        0.0061
     13 C          15.4027   38.7172   30.2832 C.ar    1  UNL1       -0.0032
     14 C          14.4598   38.8025   31.2922 C.ar    1  UNL1       -0.0109
     15 C          13.1655   38.3628   31.0772 C.ar    1  UNL1       -0.0032
     16 C          12.8071   37.8351   29.8541 C.ar    1  UNL1        0.0061
     17 C          13.3769   37.1829   27.5188 C.2     1  UNL1        0.3413
     18 O          13.5412   36.0002   27.2954 O.2     1  UNL1       -0.2449
     19 C          11.4435   37.8007   26.2621 C.3     1  UNL1        0.2560
     20 O          12.8512   37.9810   26.5694 O.3     1  UNL1       -0.4413
     21 S          20.8881   38.4201   30.1886 S.3     1  UNL1       -0.0819
     22 C          20.5256   39.6113   28.8750 C.3     1  UNL1        0.0904
     23 C          21.7485   40.4497   28.6056 C.ar    1  UNL1       -0.0109
     24 C          22.9506   39.8360   28.3006 C.ar    1  UNL1       -0.0032
     25 C          24.0728   40.5975   28.0481 C.ar    1  UNL1        0.0061
     26 C          23.9962   41.9903   28.1114 C.ar    1  UNL1        0.0756
     27 C          22.7811   42.6028   28.4249 C.ar    1  UNL1        0.0061
     28 C          21.6655   41.8294   28.6699 C.ar    1  UNL1       -0.0032
     29 C          25.1950   42.8120   27.8473 C.2     1  UNL1        0.3413
     30 O          26.2781   42.4592   28.2691 O.2     1  UNL1       -0.2449
     31 O          25.0871   43.9527   27.1388 O.3     1  UNL1       -0.4413
     32 C          25.2741   45.1979   27.8616 C.3     1  UNL1        0.2560
@<TRIPOS>BOND
     1    19    20    1
     2    20    17    1
     3    17    18    2
     4    17    11    1
     5    11    16   ar
     6    11    12   ar
     7    12    13   ar
     8    13    14   ar
     9    14    15   ar
    10    14    10    1
    11    15    16   ar
    12    10     9    1
    13     9     1    1
    14     1     5   ar
    15     1     2   ar
    16     2     3   ar
    17     3     4   ar
    18     4     8   ar
    19     4     5   ar
    20     5     6   ar
    21     6     7   ar
    22     7     8   ar
    23     7    21    1
    24    21    22    1
    25    22    23    1
    26    23    28   ar
    27    23    24   ar
    28    24    25   ar
    29    25    26   ar
    30    26    27   ar
    31    26    29    1
    32    27    28   ar
    33    29    30    2
    34    29    31    1
    35    31    32    1
@<TRIPOS>MOLECULE
ZINC17958262
 34 36 0 0 0
SMALL
GASTEIGER

@<TRIPOS>ATOM
      1 C          13.1424   38.4367   31.4746 C.3     1  UNL1        0.1152
      2 N          14.1482   38.8990   30.5150 N.am    1  UNL1       -0.2737
      3 C          14.3952   38.1832   29.4001 C.2     1  UNL1        0.2259
      4 O          15.2279   38.5660   28.6057 O.2     1  UNL1       -0.2749
      5 C          14.8855   40.1396   30.7673 C.3     1  UNL1        0.1203
      6 C          15.9777   39.8794   31.7725 C.ar    1  UNL1        0.0009
      7 C          15.8479   40.3444   33.0680 C.ar    1  UNL1        0.0007
      8 C          16.8445   40.1033   33.9953 C.ar    1  UNL1        0.0400
      9 C          17.9817   39.4040   33.6241 C.ar    1  UNL1        0.1779
     10 C          18.1148   38.9408   32.3188 C.ar    1  UNL1        0.1723
     11 C          17.1097   39.1810   31.3957 C.ar    1  UNL1        0.0374
     12 O          19.2289   38.2536   31.9498 O.3     1  UNL1       -0.4684
     13 C          20.1470   38.9233   31.0833 C.3     1  UNL1        0.2526
     14 O          18.9652   39.1704   34.5338 O.3     1  UNL1       -0.4205
     15 C          19.8389   40.2592   34.8388 C.3     1  UNL1        0.5087
     16 F          20.0953   40.9916   33.6747 F       1  UNL1       -0.1550
     17 F          19.2347   41.0899   35.7887 F       1  UNL1       -0.1550
     18 C          13.6368   36.9071   29.1406 C.3     1  UNL1        0.0853
     19 C          13.2275   36.8476   27.6676 C.3     1  UNL1        0.0096
     20 C          11.8471   37.4847   27.4957 C.3     1  UNL1        0.0025
     21 C          11.8755   38.4512   26.3099 C.3     1  UNL1        0.0246
     22 C          10.4676   38.5833   25.7258 C.3     1  UNL1        0.1077
     23 N          10.5401   39.2491   24.4229 N.ar    1  UNL1       -0.3103
     24 C          10.4758   40.5971   24.3634 C.ar    1  UNL1        0.2580
     25 O          10.3589   41.2612   25.3753 O.2     1  UNL1       -0.2671
     26 C          10.5515   41.2421   23.0401 C.ar    1  UNL1        0.0340
     27 C          10.4928   42.6260   22.8951 C.ar    1  UNL1        0.0029
     28 C          10.5684   43.1807   21.6346 C.ar    1  UNL1        0.0000
     29 C          10.7018   42.3701   20.5177 C.ar    1  UNL1       -0.0018
     30 C          10.7612   40.9969   20.6478 C.ar    1  UNL1       -0.0238
     31 C          10.6868   40.4211   21.9070 C.ar    1  UNL1       -0.1133
     32 N          10.7430   39.0462   22.0817 N.ar    1  UNL1       -0.6386
     33 C          10.6747   38.5085   23.3117 C.ar    1  UNL1       -0.0162
     34 S          10.7557   36.8055   23.4670 S.2     1  UNL1       -0.0582
@<TRIPOS>UNITY_ATOM_ATTR
32 1
charge -1
@<TRIPOS>BOND
     1     1     2    1
     2     2     5    1
     3     2     3   am
     4     5     6    1
     5     6    11   ar
     6     6     7   ar
     7     7     8   ar
     8     8     9   ar
     9     9    10   ar
    10     9    14    1
    11    10    11   ar
    12    10    12    1
    13    12    13    1
    14    14    15    1
    15    15    16    1
    16    15    17    1
    17     3     4    2
    18     3    18    1
    19    18    19    1
    20    19    20    1
    21    20    21    1
    22    21    22    1
    23    22    23    1
    24    23    33   ar
    25    23    24   ar
    26    24    25    2
    27    24    26   ar
    28    26    31   ar
    29    26    27   ar
    30    27    28   ar
    31    28    29   ar
    32    29    30   ar
    33    30    31   ar
    34    31    32   ar
    35    32    33   ar
    36    33    34    2
@<TRIPOS>MOLECULE
ZINC10783836
 34 36 0 0 0
SMALL
GASTEIGER

@<TRIPOS>ATOM
      1 C          13.9497   38.3394   30.0310 C.ar    1  UNL1        0.0771
      2 C          13.7211   39.1624   31.1415 C.ar    1  UNL1        0.0067
      3 C          14.7668   39.6658   31.8606 C.ar    1  UNL1        0.0065
      4 C          16.0762   39.3709   31.4823 C.ar    1  UNL1        0.0739
      5 C          16.3245   38.5468   30.3615 C.ar    1  UNL1        0.0882
      6 C          15.2458   38.0320   29.6368 C.ar    1  UNL1        0.0258
      7 N          17.6041   38.2740   30.0134 N.ar    1  UNL1       -0.2223
      8 C          18.6168   38.7558   30.6909 C.ar    1  UNL1        0.1742
      9 N          18.4663   39.5593   31.7848 N.ar    1  UNL1       -0.2714
     10 C          17.2325   39.8984   32.2241 C.ar    1  UNL1        0.2640
     11 O          17.0841   40.6133   33.1979 O.2     1  UNL1       -0.2669
     12 C          12.8026   37.7987   29.2689 C.2     1  UNL1        0.3414
     13 O          11.6718   37.9481   29.6860 O.2     1  UNL1       -0.2449
     14 C          12.1909   37.5340   26.9768 C.3     1  UNL1        0.2560
     15 O          13.0118   37.1457   28.1097 O.3     1  UNL1       -0.4413
     16 C          19.6506   40.0578   32.4885 C.3     1  UNL1        0.1385
     17 C          19.7132   39.4443   33.8635 C.ar    1  UNL1        0.0111
     18 C          19.6687   38.0704   34.0102 C.ar    1  UNL1       -0.0016
     19 C          19.7256   37.5075   35.2713 C.ar    1  UNL1       -0.0002
     20 C          19.8281   38.3181   36.3868 C.ar    1  UNL1        0.0008
     21 C          19.8731   39.6916   36.2414 C.ar    1  UNL1        0.0111
     22 C          19.8209   40.2555   34.9788 C.ar    1  UNL1        0.0555
     23 CL         19.8846   41.9805   34.7950 Cl      1  UNL1       -0.0825
     24 S          20.2487   38.3486   30.1658 S.3     1  UNL1       -0.0674
     25 C          20.3133   39.2613   28.6042 C.3     1  UNL1        0.1500
     26 C          21.0804   38.4591   27.5848 C.2     1  UNL1        0.2376
     27 O          20.5170   37.5995   26.9409 O.2     1  UNL1       -0.2739
     28 N          22.3925   38.6967   27.3889 N.am    1  UNL1       -0.2706
     29 C          23.0730   39.7350   28.1667 C.3     1  UNL1        0.1202
     30 C          24.2785   39.1420   28.8495 C.2     1  UNL1       -0.0047
     31 C          24.1221   38.3224   29.8595 C.2     1  UNL1       -0.0031
     32 C          23.1382   37.9169   26.3979 C.3     1  UNL1        0.1202
     33 C          23.2190   38.6905   25.1072 C.2     1  UNL1       -0.0047
     34 C          24.2654   39.4371   24.8555 C.2     1  UNL1       -0.0031
@<TRIPOS>BOND
     1    14    15    1
     2    15    12    1
     3    12    13    2
     4    12     1    1
     5     1     6   ar
     6     1     2   ar
     7     2     3   ar
     8     3     4   ar
     9     4    10   ar
    10     4     5   ar
    11     5     6   ar
    12     5     7   ar
    13     7     8   ar
    14     8     9   ar
    15     8    24    1
    16     9    10   ar
    17     9    16    1
    18    10    11    2
    19    16    17    1
    20    17    22   ar
    21    17    18   ar
    22    18    19   ar
    23    19    20   ar
    24    20    21   ar
    25    21    22   ar
    26    22    23    1
    27    24    25    1
    28    25    26    1
    29    26    27    2
    30    26    28   am
    31    28    29    1
    32    28    32    1
    33    29    30    1
    34    30    31    2
    35    32    33    1
    36    33    34    2
@<TRIPOS>MOLECULE
ZINC13899592
 36 39 0 0 0
SMALL
GASTEIGER

@<TRIPOS>ATOM
      1 C          22.4451   39.4623   28.1665 C.3     1  UNL1        0.1717
      2 C          23.4107   38.6500   28.9905 C.ar    1  UNL1        0.0098
      3 C          24.6827   39.1314   29.2376 C.ar    1  UNL1        0.0007
      4 C          25.5674   38.3896   29.9971 C.ar    1  UNL1        0.0294
      5 C          25.1828   37.1589   30.5018 C.ar    1  UNL1        0.1401
      6 C          23.9101   36.6754   30.2492 C.ar    1  UNL1        0.0294
      7 C          23.0255   37.4213   29.4938 C.ar    1  UNL1        0.0007
      8 F          26.0483   36.4307   31.2405 F       1  UNL1       -0.2042
      9 C          22.7718   40.9266   28.3084 C.ar    1  UNL1        0.0098
     10 C          21.7643   41.8370   28.5675 C.ar    1  UNL1        0.0007
     11 C          22.0634   43.1796   28.7026 C.ar    1  UNL1        0.0294
     12 C          23.3712   43.6139   28.5677 C.ar    1  UNL1        0.1401
     13 C          24.3786   42.7017   28.3030 C.ar    1  UNL1        0.0294
     14 C          24.0779   41.3590   28.1735 C.ar    1  UNL1        0.0007
     15 F          23.6641   44.9266   28.6950 F       1  UNL1       -0.2042
     16 C          22.5602   39.0541   26.6964 C.3     1  UNL1        0.2372
     17 C          21.8347   37.7514   26.4785 C.2     1  UNL1        0.0931
     18 O          22.4074   36.8193   25.9656 O.co2   1  UNL1       -0.5454
     19 O          20.5521   37.6265   26.8542 O.co2   1  UNL1       -0.5454
     20 O          23.9381   38.8953   26.3527 O.3     1  UNL1       -0.4415
     21 C          22.9878   40.1655   21.8595 C.3     1  UNL1        0.0523
     22 C          23.9233   40.1127   23.0398 C.ar    1  UNL1        0.0655
     23 C          25.1919   40.6647   22.9549 C.ar    1  UNL1        0.0356
     24 C          26.0196   40.5945   24.0640 C.ar    1  UNL1        0.1049
     25 N          25.5747   40.0109   25.1650 N.ar    1  UNL1       -0.1927
     26 C          24.3595   39.4896   25.2107 C.ar    1  UNL1        0.3199
     27 N          23.5438   39.5394   24.1700 N.ar    1  UNL1       -0.1986
     28 O          21.1121   39.2251   28.6237 O.3     1  UNL1       -0.3464
     29 C          20.9642   39.2916   30.0435 C.3     1  UNL1        0.1430
     30 C          19.6274   38.6660   30.4468 C.3     1  UNL1        0.0321
     31 C          19.4685   38.7383   31.9668 C.3     1  UNL1        0.0025
     32 C          18.1631   39.4589   32.3095 C.3     1  UNL1        0.0001
     33 C          18.0043   39.5312   33.8295 C.3     1  UNL1        0.0000
     34 C          19.1836   40.2993   34.4295 C.3     1  UNL1        0.0000
     35 C          20.4890   39.5787   34.0868 C.3     1  UNL1        0.0000
     36 C          20.6479   39.5065   32.5668 C.3     1  UNL1        0.0001
@<TRIPOS>UNITY_ATOM_ATTR
19 1
charge -1
@<TRIPOS>BOND
     1    21    22    1
     2    22    27   ar
     3    22    23   ar
     4    23    24   ar
     5    24    25   ar
     6    25    26   ar
     7    26    27   ar
     8    26    20    1
     9    20    16    1
    10    16    17    1
    11    16     1    1
    12    17    18   ar
    13    17    19   ar
    14     1     2    1
    15     1     9    1
    16     1    28    1
    17     2     7   ar
    18     2     3   ar
    19     3     4   ar
    20     4     5   ar
    21     5     6   ar
    22     5     8    1
    23     6     7   ar
    24     9    14   ar
    25     9    10   ar
    26    10    11   ar
    27    11    12   ar
    28    12    13   ar
    29    12    15    1
    30    13    14   ar
    31    28    29    1
    32    29    30    1
    33    30    31    1
    34    31    36    1
    35    31    32    1
    36    32    33    1
    37    33    34    1
    38    34    35    1
    39    35    36    1
@<TRIPOS>MOLECULE
ZINC09475906
 34 37 0 0 0
SMALL
GASTEIGER

@<TRIPOS>ATOM
      1 N          12.6347   37.4649   27.8270 N.am    1  UNL1       -0.2327
      2 C          13.9520   37.7159   27.9621 C.2     1  UNL1        0.2311
      3 O          14.5862   38.1485   27.0234 O.2     1  UNL1       -0.2745
      4 C          11.2538   39.6832   23.6630 C.ar    1  UNL1       -0.0040
      5 C          10.5636   39.5053   22.4922 C.ar    1  UNL1       -0.0027
      6 C           9.9494   38.2991   22.1888 C.ar    1  UNL1        0.0003
      7 C          10.0337   37.2512   23.0876 C.ar    1  UNL1        0.0081
      8 C          10.7222   37.4201   24.2624 C.ar    1  UNL1        0.0494
      9 C          11.3607   38.6343   24.6050 C.ar    1  UNL1        0.0853
     10 N          11.9938   38.6459   25.7979 N.ar    1  UNL1       -0.2240
     11 C          12.0274   37.5992   26.5891 C.ar    1  UNL1        0.1691
     12 S          11.0837   36.3937   25.6669 S.2     1  UNL1       -0.0512
     13 C          12.5984   41.5229   22.6850 C.3     1  UNL1        0.0051
     14 C          11.9054   41.0115   23.9496 C.3     1  UNL1        0.0279
     15 C          11.8450   37.0500   28.9892 C.3     1  UNL1        0.1457
     16 C          11.6326   38.2316   29.9000 C.ar    1  UNL1        0.0795
     17 C          12.2453   38.2580   31.1388 C.ar    1  UNL1        0.0165
     18 C          12.0476   39.3521   31.9669 C.ar    1  UNL1        0.0029
     19 C          11.2289   40.3784   31.5205 C.ar    1  UNL1        0.0207
     20 C          10.6495   40.2818   30.2696 C.ar    1  UNL1        0.0985
     21 N          10.8643   39.2281   29.5062 N.ar    1  UNL1       -0.2464
     22 C          14.6367   37.4590   29.2798 C.3     1  UNL1        0.0875
     23 C          15.5124   38.6602   29.6421 C.3     1  UNL1        0.0353
     24 C          16.3218   38.3402   30.9004 C.3     1  UNL1        0.1564
     25 S          15.8474   39.4787   32.2305 S.O2    1  UNL1        0.0087
     26 O          15.4253   40.7207   31.6842 O.2     1  UNL1       -0.1686
     27 O          15.0502   38.8021   33.1927 O.2     1  UNL1       -0.1686
     28 C          17.3521   39.8453   33.0708 C.ar    1  UNL1        0.1056
     29 C          18.4984   39.1297   32.7798 C.ar    1  UNL1        0.0180
     30 C          19.6799   39.4203   33.4359 C.ar    1  UNL1       -0.0029
     31 C          19.7129   40.4200   34.3900 C.ar    1  UNL1       -0.0218
     32 C          18.5654   41.1324   34.6846 C.ar    1  UNL1       -0.0029
     33 C          17.3849   40.8447   34.0253 C.ar    1  UNL1        0.0180
     34 C          20.9998   40.7336   35.1088 C.3     1  UNL1        0.0310
@<TRIPOS>BOND
     1    13    14    1
     2    14     4    1
     3     4     9   ar
     4     4     5   ar
     5     5     6   ar
     6     6     7   ar
     7     7     8   ar
     8     8    12   ar
     9     8     9   ar
    10     9    10   ar
    11    10    11   ar
    12    11    12   ar
    13    11     1    1
    14     1    15    1
    15     1     2   am
    16    15    16    1
    17    16    21   ar
    18    16    17   ar
    19    17    18   ar
    20    18    19   ar
    21    19    20   ar
    22    20    21   ar
    23     2     3    2
    24     2    22    1
    25    22    23    1
    26    23    24    1
    27    24    25    1
    28    25    26    2
    29    25    27    2
    30    25    28    1
    31    28    33   ar
    32    28    29   ar
    33    29    30   ar
    34    30    31   ar
    35    31    32   ar
    36    31    34    1
    37    32    33   ar
@<TRIPOS>MOLECULE
ZINC19898193
 36 39 0 0 0
SMALL
GASTEIGER

@<TRIPOS>ATOM
      1 N          23.5334   38.9551   28.3730 N.4     1  UNL1        0.3122
      2 H          23.9648   38.6314   27.5073 H       1  UNL1        0.2111
      3 C          22.4148   38.0552   28.6841 C.3     1  UNL1        0.1122
      4 C          21.7294   38.5196   29.9708 C.3     1  UNL1        0.0930
      5 C          20.2370   38.7293   29.7066 C.3     1  UNL1        0.1483
      6 O          19.4755   37.9626   30.6416 O.3     1  UNL1       -0.3536
      7 C          18.1958   38.5213   30.9459 C.3     1  UNL1        0.1421
      8 C          18.3115   39.4186   32.1798 C.3     1  UNL1        0.0297
      9 C          16.9429   39.5380   32.8535 C.3     1  UNL1        0.0025
     10 C          16.7359   40.9749   33.3365 C.3     1  UNL1        0.0001
     11 C          19.3122   38.8076   33.1627 C.3     1  UNL1        0.0025
     12 C          20.3637   39.8543   33.5365 C.3     1  UNL1        0.0001
     13 C          19.6814   41.2504   35.4930 C.3     1  UNL1        0.0000
     14 C          20.4305   39.9888   35.0591 C.3     1  UNL1        0.0000
     15 C          24.5532   38.9118   29.4295 C.3     1  UNL1        0.2285
     16 N          25.3445   37.6863   29.2944 N.ar    1  UNL1       -0.2423
     17 C          25.3755   36.7727   30.3344 C.ar    1  UNL1        0.0742
     18 C          24.7175   36.8579   31.5727 C.ar    1  UNL1        0.0180
     19 C          24.8474   35.8618   32.5107 C.ar    1  UNL1        0.0015
     20 C          25.6275   34.7439   32.2684 C.ar    1  UNL1        0.0006
     21 C          26.2874   34.6328   31.0568 C.ar    1  UNL1        0.0081
     22 C          26.1582   35.6287   30.1197 C.ar    1  UNL1        0.0499
     23 S          26.8024   35.8810   28.4834 S.2     1  UNL1       -0.0258
     24 C          26.0349   37.4601   28.1594 C.ar    1  UNL1        0.2964
     25 O          26.1116   38.1546   27.1628 O.2     1  UNL1       -0.2592
     26 C          23.0593   40.3284   28.1550 C.3     1  UNL1        0.2285
     27 N          23.9811   41.0260   27.2551 N.ar    1  UNL1       -0.2423
     28 C          24.6207   42.1759   27.6865 C.ar    1  UNL1        0.0742
     29 C          24.5053   42.8055   28.9371 C.ar    1  UNL1        0.0180
     30 C          25.2109   43.9510   29.2180 C.ar    1  UNL1        0.0015
     31 C          26.0571   44.5215   28.2823 C.ar    1  UNL1        0.0006
     32 C          26.1909   43.9227   27.0415 C.ar    1  UNL1        0.0081
     33 C          25.4851   42.7784   26.7605 C.ar    1  UNL1        0.0499
     34 S          25.3624   41.7157   25.3422 S.2     1  UNL1       -0.0258
     35 C          24.2019   40.5391   26.0182 C.ar    1  UNL1        0.2964
     36 O          23.7287   39.5480   25.4936 O.2     1  UNL1       -0.2592
@<TRIPOS>UNITY_ATOM_ATTR
1 1
charge 1
@<TRIPOS>BOND
     1    13    14    1
     2    14    12    1
     3    12    11    1
     4    11     8    1
     5     8     9    1
     6     8     7    1
     7     9    10    1
     8     7     6    1
     9     6     5    1
    10     5     4    1
    11     4     3    1
    12     3     1    1
    13     1    15    1
    14     1    26    1
    15    15    16    1
    16    16    24   ar
    17    16    17   ar
    18    17    22   ar
    19    17    18   ar
    20    18    19   ar
    21    19    20   ar
    22    20    21   ar
    23    21    22   ar
    24    22    23   ar
    25    23    24   ar
    26    24    25    2
    27    26    27    1
    28    27    35   ar
    29    27    28   ar
    30    28    33   ar
    31    28    29   ar
    32    29    30   ar
    33    30    31   ar
    34    31    32   ar
    35    32    33   ar
    36    33    34   ar
    37    34    35   ar
    38    35    36    2
    39     1     2    1
@<TRIPOS>MOLECULE
ZINC05371378
 38 42 0 0 0
SMALL
GASTEIGER

@<TRIPOS>ATOM
      1 C          10.6485   36.8350   23.3964 C.3     1  UNL1        0.2980
      2 O          11.4825   37.9934   23.5946 O.3     1  UNL1       -0.3073
      3 C          10.6258   39.1015   23.2648 C.3     1  UNL1        0.2055
      4 C          11.1054   40.4014   23.8745 C.3     1  UNL1        0.1773
      5 C          11.0316   40.3463   25.4021 C.3     1  UNL1        0.1748
      6 C           9.5855   40.0184   25.7947 C.3     1  UNL1        0.1768
      7 O           9.2500   38.7435   25.2540 O.3     1  UNL1       -0.3259
      8 C           9.2659   38.6467   23.8288 C.3     1  UNL1        0.2695
      9 O           9.2739   37.2291   23.5165 O.3     1  UNL1       -0.2852
     10 C          10.8942   36.2572   22.0010 C.3     1  UNL1        0.0962
     11 O          10.9534   35.8490   24.3847 O.3     1  UNL1       -0.3126
     12 C          10.6754   35.7192   26.7819 C.3     1  UNL1        0.0348
     13 C           9.9757   35.7436   25.4215 C.3     1  UNL1        0.1471
     14 C           9.4616   39.9801   27.3192 C.3     1  UNL1        0.1747
     15 O           9.5625   41.3074   27.8388 O.3     1  UNL1       -0.3463
     16 C           9.2257   41.4168   29.2232 C.3     1  UNL1        0.1687
     17 C           9.5421   42.8078   29.7088 C.ar    1  UNL1        0.0073
     18 C           9.1478   43.2051   30.9727 C.ar    1  UNL1       -0.0019
     19 C           9.4419   44.4797   31.4199 C.ar    1  UNL1       -0.0002
     20 C          10.1219   45.3602   30.5994 C.ar    1  UNL1       -0.0000
     21 C          10.5122   44.9645   29.3336 C.ar    1  UNL1       -0.0002
     22 C          10.2218   43.6885   28.8882 C.ar    1  UNL1       -0.0019
     23 O          11.9076   39.3291   25.8918 O.3     1  UNL1       -0.3463
     24 C          11.3197   38.4830   26.8821 C.3     1  UNL1        0.1687
     25 C          12.3655   38.0929   27.8947 C.ar    1  UNL1        0.0073
     26 C          12.0755   38.1503   29.2450 C.ar    1  UNL1       -0.0019
     27 C          13.0333   37.7879   30.1736 C.ar    1  UNL1       -0.0002
     28 C          14.2842   37.3775   29.7521 C.ar    1  UNL1       -0.0000
     29 C          14.5760   37.3255   28.4019 C.ar    1  UNL1       -0.0002
     30 C          13.6167   37.6829   27.4732 C.ar    1  UNL1       -0.0019
     31 O          12.4580   40.6360   23.4775 O.3     1  UNL1       -0.3462
     32 C          12.7530   42.0063   23.1998 C.3     1  UNL1        0.1687
     33 C          12.0826   42.4137   21.9131 C.ar    1  UNL1        0.0073
     34 C          12.2870   41.6743   20.7631 C.ar    1  UNL1       -0.0019
     35 C          11.6720   42.0479   19.5828 C.ar    1  UNL1       -0.0002
     36 C          10.8568   43.1639   19.5513 C.ar    1  UNL1       -0.0000
     37 C          10.6482   43.9002   20.7025 C.ar    1  UNL1       -0.0002
     38 C          11.2628   43.5263   21.8830 C.ar    1  UNL1       -0.0019
@<TRIPOS>BOND
     1    12    13    1
     2    13    11    1
     3    11     1    1
     4     1     9    1
     5     1     2    1
     6     1    10    1
     7     2     3    1
     8     3     8    1
     9     3     4    1
    10     4     5    1
    11     4    31    1
    12     5     6    1
    13     5    23    1
    14     6     7    1
    15     6    14    1
    16     7     8    1
    17     8     9    1
    18    14    15    1
    19    15    16    1
    20    16    17    1
    21    17    22   ar
    22    17    18   ar
    23    18    19   ar
    24    19    20   ar
    25    20    21   ar
    26    21    22   ar
    27    23    24    1
    28    24    25    1
    29    25    30   ar
    30    25    26   ar
    31    26    27   ar
    32    27    28   ar
    33    28    29   ar
    34    29    30   ar
    35    31    32    1
    36    32    33    1
    37    33    38   ar
    38    33    34   ar
    39    34    35   ar
    40    35    36   ar
    41    36    37   ar
    42    37    38   ar
@<TRIPOS>MOLECULE
ZINC24905895
 35 37 0 0 0
SMALL
GASTEIGER

@<TRIPOS>ATOM
      1 C          23.0147   39.4842   29.0411 C.3     1  UNL1        0.2933
      2 C          23.8167   38.2502   29.3654 C.2     1  UNL1        0.2757
      3 O          23.2535   37.2378   29.7242 O.2     1  UNL1       -0.2704
      4 N          25.1599   38.2716   29.2565 N.am    1  UNL1       -0.2313
      5 C          25.8994   37.1339   29.5554 C.ar    1  UNL1        0.1692
      6 N          26.0727   36.0385   28.8397 N.ar    1  UNL1       -0.2237
      7 C          26.8195   35.0383   29.2827 C.ar    1  UNL1        0.0897
      8 C          27.4228   35.1421   30.5051 C.ar    1  UNL1        0.0572
      9 S          26.8750   36.7683   31.0078 S.2     1  UNL1       -0.0506
     10 C          26.9991   33.8169   28.4607 C.ar    1  UNL1        0.0182
     11 C          27.1200   32.5716   29.0751 C.ar    1  UNL1        0.0015
     12 C          27.2818   31.4380   28.3047 C.ar    1  UNL1        0.0000
     13 C          27.3354   31.5372   26.9260 C.ar    1  UNL1        0.0000
     14 C          27.2213   32.7711   26.3111 C.ar    1  UNL1        0.0000
     15 C          27.0535   33.9108   27.0710 C.ar    1  UNL1        0.0015
     16 C          25.8403   39.4945   28.8230 C.3     1  UNL1        0.1265
     17 C          26.6065   39.2203   27.5545 C.2     1  UNL1       -0.0043
     18 C          27.7119   39.8766   27.3022 C.2     1  UNL1       -0.0031
     19 O          22.3259   39.2932   27.8037 O.3     1  UNL1       -0.4353
     20 C          21.0793   38.7812   27.8693 C.2     1  UNL1        0.3419
     21 O          20.7089   37.9737   27.0384 O.2     1  UNL1       -0.2449
     22 C          19.8733   38.3176   29.8896 C.2     1  UNL1        0.0069
     23 C          20.2009   39.1846   28.9066 C.2     1  UNL1        0.0819
     24 C          18.6033   39.5243   33.2078 C.ar    1  UNL1        0.1754
     25 C          19.4668   39.1332   32.2025 C.ar    1  UNL1        0.0403
     26 C          18.9581   38.7338   30.9614 C.ar    1  UNL1        0.0064
     27 C          17.5757   38.7373   30.7415 C.ar    1  UNL1        0.0403
     28 C          16.7181   39.1256   31.7529 C.ar    1  UNL1        0.1754
     29 C          17.2281   39.5219   32.9869 C.ar    1  UNL1        0.2061
     30 C          19.6645   41.2215   34.4920 C.3     1  UNL1        0.2526
     31 O          19.0967   39.9125   34.4141 O.3     1  UNL1       -0.4683
     32 O          16.3817   39.9078   33.9778 O.3     1  UNL1       -0.4654
     33 C          15.9690   41.2758   33.9824 C.3     1  UNL1        0.2528
     34 O          15.3747   39.1254   31.5417 O.3     1  UNL1       -0.4683
     35 C          14.9294   38.9345   30.1973 C.3     1  UNL1        0.2526
@<TRIPOS>BOND
     1    30    31    1
     2    31    24    1
     3    24    29   ar
     4    24    25   ar
     5    25    26   ar
     6    26    27   ar
     7    26    22    1
     8    27    28   ar
     9    28    29   ar
    10    28    34    1
    11    29    32    1
    12    32    33    1
    13    34    35    1
    14    22    23    2
    15    23    20    1
    16    20    21    2
    17    20    19    1
    18    19     1    1
    19     1     2    1
    20     2     3    2
    21     2     4   am
    22     4    16    1
    23     4     5    1
    24    16    17    1
    25    17    18    2
    26     5     9   ar
    27     5     6   ar
    28     6     7   ar
    29     7     8   ar
    30     7    10    1
    31     8     9   ar
    32    10    15   ar
    33    10    11   ar
    34    11    12   ar
    35    12    13   ar
    36    13    14   ar
    37    14    15   ar
@<TRIPOS>MOLECULE
ZINC23461183
 35 38 0 0 0
SMALL
GASTEIGER

@<TRIPOS>ATOM
      1 N          22.8798   39.0817   28.8698 N.ar    1  UNL1       -0.3064
      2 C          24.0024   38.3491   29.2193 C.ar    1  UNL1        0.0793
      3 C          25.2834   38.2461   28.6985 C.ar    1  UNL1        0.0201
      4 C          26.2003   37.4030   29.2919 C.ar    1  UNL1        0.0215
      5 C          25.8494   36.6565   30.4069 C.ar    1  UNL1        0.1238
      6 C          24.5821   36.7466   30.9377 C.ar    1  UNL1        0.0405
      7 C          23.6418   37.5957   30.3486 C.ar    1  UNL1        0.1005
      8 N          22.3469   37.8939   30.6320 N.ar    1  UNL1       -0.2211
      9 C          21.8979   38.7709   29.7677 C.ar    1  UNL1        0.1716
     10 S          27.0344   35.5850   31.1501 S.O2    1  UNL1        0.0635
     11 O          26.5511   34.2604   30.9742 O.2     1  UNL1       -0.1528
     12 O          28.3091   35.9997   30.6784 O.2     1  UNL1       -0.1528
     13 N          27.0120   35.8846   32.7787 N.3     1  UNL1       -0.1504
     14 C          26.2014   35.0607   33.6894 C.3     1  UNL1        0.1279
     15 C          27.1016   34.5982   34.8463 C.3     1  UNL1        0.1613
     16 O          27.7447   35.7368   35.4240 O.3     1  UNL1       -0.3507
     17 C          28.6155   36.4336   34.5295 C.3     1  UNL1        0.1613
     18 C          27.7973   36.9865   33.3571 C.3     1  UNL1        0.1279
     19 C          22.7681   40.0197   27.7500 C.3     1  UNL1        0.1106
     20 C          23.4345   41.3446   28.1261 C.3     1  UNL1        0.0566
     21 C          22.3630   42.3546   28.5415 C.3     1  UNL1        0.1442
     22 O          22.9052   43.6754   28.4828 O.3     1  UNL1       -0.3537
     23 C          24.8662   44.5485   29.5932 C.3     1  UNL1        0.0346
     24 C          24.3325   43.7158   28.4259 C.3     1  UNL1        0.1422
     25 S          20.2702   39.4455   29.7623 S.3     1  UNL1       -0.0725
     26 C          19.4418   38.2766   30.8684 C.3     1  UNL1        0.0907
     27 C          18.5097   39.0265   31.7849 C.ar    1  UNL1       -0.0188
     28 C          18.9860   39.5634   32.9663 C.ar    1  UNL1       -0.0256
     29 C          18.1321   40.2551   33.8049 C.ar    1  UNL1       -0.0088
     30 C          16.7999   40.4021   33.4664 C.ar    1  UNL1       -0.0225
     31 C          16.3225   39.8607   32.2875 C.ar    1  UNL1       -0.0088
     32 C          17.1773   39.1727   31.4468 C.ar    1  UNL1       -0.0256
     33 C          16.6569   38.5825   30.1616 C.3     1  UNL1        0.0307
     34 C          15.8682   41.1529   34.3824 C.3     1  UNL1        0.0310
     35 C          20.4372   39.3987   33.3378 C.3     1  UNL1        0.0307
@<TRIPOS>BOND
     1    23    24    1
     2    24    22    1
     3    22    21    1
     4    21    20    1
     5    20    19    1
     6    19     1    1
     7     1     9   ar
     8     1     2   ar
     9     2     7   ar
    10     2     3   ar
    11     3     4   ar
    12     4     5   ar
    13     5     6   ar
    14     5    10    1
    15     6     7   ar
    16     7     8   ar
    17     8     9   ar
    18     9    25    1
    19    25    26    1
    20    26    27    1
    21    27    32   ar
    22    27    28   ar
    23    28    29   ar
    24    28    35    1
    25    29    30   ar
    26    30    31   ar
    27    30    34    1
    28    31    32   ar
    29    32    33    1
    30    10    11    2
    31    10    12    2
    32    10    13    1
    33    13    18    1
    34    13    14    1
    35    14    15    1
    36    15    16    1
    37    16    17    1
    38    17    18    1
@<TRIPOS>MOLECULE
ZINC18961764
 35 39 0 0 0
SMALL
GASTEIGER

@<TRIPOS>ATOM
      1 N          20.7011   50.3596   25.1788 N.ar    1  UNL1       -0.2285
      2 C          22.0179   50.2538   24.8615 C.ar    1  UNL1        0.0982
      3 C          22.1246   50.2972   23.5155 C.ar    1  UNL1        0.0275
      4 C          20.8269   50.4264   22.9824 C.ar    1  UNL1        0.0993
      5 N          19.9749   50.4634   23.9854 N.ar    1  UNL1       -0.1654
      6 C          19.1012   50.3590   29.0274 C.ar    1  UNL1        0.0001
      7 C          20.4604   50.1815   28.8452 C.ar    1  UNL1        0.0015
      8 C          20.9935   50.1810   27.5712 C.ar    1  UNL1        0.0191
      9 C          20.1633   50.3591   26.4725 C.ar    1  UNL1        0.0828
     10 C          18.7995   50.5424   26.6590 C.ar    1  UNL1        0.0191
     11 C          18.2716   50.5362   27.9354 C.ar    1  UNL1        0.0015
     12 C          20.4807   50.5061   21.5417 C.ar    1  UNL1        0.0192
     13 C          20.1553   51.7334   20.9676 C.ar    1  UNL1        0.0032
     14 C          19.8388   51.8025   19.6260 C.ar    1  UNL1        0.0241
     15 C          19.8344   50.6548   18.8539 C.ar    1  UNL1        0.1429
     16 C          20.1511   49.4331   19.4198 C.ar    1  UNL1        0.0241
     17 C          20.4743   49.3531   20.7592 C.ar    1  UNL1        0.0032
     18 N          19.4891   50.7345   17.4167 N.pl3   1  UNL1        0.0577
     19 O          20.0822   50.0426   16.6086 O.2     1  UNL1       -0.1261
     20 O          18.6117   51.4918   17.0422 O.2     1  UNL1       -0.1261
     21 C          23.4045   50.2156   22.7243 C.3     1  UNL1        0.1390
     22 C          23.9315   48.8042   22.7657 C.2     1  UNL1        0.3219
     23 O          23.2823   47.9028   22.2903 O.2     1  UNL1       -0.2497
     24 O          25.1219   48.5487   23.3307 O.3     1  UNL1       -0.4415
     25 C          25.5003   49.3665   24.4693 C.3     1  UNL1        0.2572
     26 C          25.1227   48.6578   25.7444 C.ar    1  UNL1        0.1434
     27 C          24.5324   49.2168   26.8156 C.ar    1  UNL1        0.1998
     28 O          24.3685   48.2452   27.7369 O.2     1  UNL1       -0.4312
     29 C          24.8597   47.1044   27.2195 C.ar    1  UNL1        0.2357
     30 N          25.3207   47.3581   26.0142 N.ar    1  UNL1       -0.2084
     31 C          24.8831   45.7967   27.8908 C.ar    1  UNL1        0.0830
     32 C          23.8521   45.1181   28.5141 C.ar    1  UNL1        0.0117
     33 C          24.1218   43.8932   29.0784 C.ar    1  UNL1        0.0076
     34 C          25.3824   43.3913   29.0070 C.ar    1  UNL1        0.0356
     35 S          26.2505   44.6708   28.1150 S.2     1  UNL1       -0.0818
@<TRIPOS>BOND
     1     6    11   ar
     2     6     7   ar
     3     7     8   ar
     4     8     9   ar
     5     9    10   ar
     6     9     1    1
     7    10    11   ar
     8     1     5   ar
     9     1     2   ar
    10     2     3   ar
    11     3     4   ar
    12     3    21    1
    13     4     5   ar
    14     4    12    1
    15    12    17   ar
    16    12    13   ar
    17    13    14   ar
    18    14    15   ar
    19    15    16   ar
    20    15    18    1
    21    16    17   ar
    22    18    19    2
    23    18    20    2
    24    21    22    1
    25    22    23    2
    26    22    24    1
    27    24    25    1
    28    25    26    1
    29    26    30   ar
    30    26    27   ar
    31    27    28   ar
    32    28    29   ar
    33    29    30   ar
    34    29    31    1
    35    31    35   ar
    36    31    32   ar
    37    32    33   ar
    38    33    34   ar
    39    34    35   ar
@<TRIPOS>MOLECULE
ZINC03018741
 34 37 0 0 0
SMALL
GASTEIGER

@<TRIPOS>ATOM
      1 C          15.9063   38.7138   30.0913 C.ar    1  UNL1        0.1789
      2 N          17.2133   38.6987   30.0156 N.ar    1  UNL1       -0.2039
      3 C          18.0012   38.8986   31.1011 C.ar    1  UNL1        0.1612
      4 C          17.3381   39.1218   32.3095 C.ar    1  UNL1        0.1222
      5 C          15.9527   39.1384   32.3943 C.ar    1  UNL1        0.2751
      6 O          15.3927   39.3358   33.4610 O.2     1  UNL1       -0.2659
      7 N          15.2382   38.9301   31.2620 N.ar    1  UNL1       -0.2537
      8 S          18.6663   39.3354   33.4673 S.2     1  UNL1       -0.0546
      9 C          20.0186   39.1178   32.3204 C.ar    1  UNL1        0.1324
     10 S          21.7028   39.1651   32.6232 S.2     1  UNL1       -0.0244
     11 N          19.3734   38.9082   31.1547 N.ar    1  UNL1       -0.2803
     12 C          13.8375   38.9362   31.2923 C.ar    1  UNL1        0.0687
     13 C          13.1502   40.1326   31.4475 C.ar    1  UNL1        0.0177
     14 C          11.7692   40.1359   31.4718 C.ar    1  UNL1        0.0015
     15 C          11.0714   38.9480   31.3526 C.ar    1  UNL1        0.0001
     16 C          11.7531   37.7543   31.2036 C.ar    1  UNL1        0.0015
     17 C          13.1339   37.7451   31.1729 C.ar    1  UNL1        0.0177
     18 C          20.1101   38.6928   29.9885 C.ar    1  UNL1        0.0663
     19 C          20.4052   37.3949   29.5838 C.ar    1  UNL1        0.0178
     20 C          21.1317   37.1787   28.4347 C.ar    1  UNL1        0.0079
     21 C          21.5732   38.2655   27.6742 C.ar    1  UNL1        0.0757
     22 C          21.2794   39.5685   28.0868 C.ar    1  UNL1        0.0079
     23 C          20.5478   39.7768   29.2341 C.ar    1  UNL1        0.0178
     24 C          22.3523   38.0380   26.4428 C.2     1  UNL1        0.3412
     25 O          21.9292   37.2875   25.5860 O.2     1  UNL1       -0.2449
     26 O          23.5308   38.6669   26.2654 O.3     1  UNL1       -0.4454
     27 C          24.7273   37.8447   26.2919 C.3     1  UNL1        0.2089
     28 C          25.1543   37.6119   27.7425 C.3     1  UNL1        0.0513
     29 S          14.9715   38.4436   28.6222 S.3     1  UNL1       -0.0743
     30 C          14.7570   36.6486   28.7119 C.3     1  UNL1        0.0971
     31 C          13.6857   36.2123   27.7104 C.3     1  UNL1        0.1542
     32 O          13.2854   37.3347   26.9219 O.3     1  UNL1       -0.3528
     33 C          11.1239   36.2540   26.8963 C.3     1  UNL1        0.0346
     34 C          11.8785   37.5844   26.9382 C.3     1  UNL1        0.1423
@<TRIPOS>BOND
     1    33    34    1
     2    34    32    1
     3    32    31    1
     4    31    30    1
     5    30    29    1
     6    29     1    1
     7     1     7   ar
     8     1     2   ar
     9     2     3   ar
    10     3    11   ar
    11     3     4   ar
    12     4     5   ar
    13     4     8   ar
    14     5     6    2
    15     5     7   ar
    16     7    12    1
    17    12    17   ar
    18    12    13   ar
    19    13    14   ar
    20    14    15   ar
    21    15    16   ar
    22    16    17   ar
    23     8     9   ar
    24     9    10    2
    25     9    11   ar
    26    11    18    1
    27    18    23   ar
    28    18    19   ar
    29    19    20   ar
    30    20    21   ar
    31    21    22   ar
    32    21    24    1
    33    22    23   ar
    34    24    25    2
    35    24    26    1
    36    26    27    1
    37    27    28    1
@<TRIPOS>MOLECULE
ZINC27476646
 31 33 0 0 0
SMALL
GASTEIGER

@<TRIPOS>ATOM
      1 C          25.1639   42.5921   26.2578 C.ar    1  UNL1        0.1725
      2 N          24.9358   42.3521   24.9813 N.ar    1  UNL1       -0.2241
      3 C          25.8824   42.5083   24.0770 C.ar    1  UNL1        0.1112
      4 C          27.1073   42.9186   24.4882 C.ar    1  UNL1        0.0566
      5 S          26.8300   43.0810   26.2459 S.2     1  UNL1       -0.0505
      6 C          22.8307   43.4789   29.0652 C.3     1  UNL1        0.0956
      7 C          23.6840   43.5795   27.8270 C.2     1  UNL1        0.2350
      8 O          23.8227   44.6486   27.2714 O.2     1  UNL1       -0.2741
      9 N          24.2930   42.4815   27.3373 N.am    1  UNL1       -0.2169
     10 C          24.0490   41.2285   27.9150 C.ar    1  UNL1        0.0608
     11 C          25.0662   40.5622   28.5859 C.ar    1  UNL1        0.0162
     12 C          24.8238   39.3275   29.1552 C.ar    1  UNL1        0.0135
     13 C          23.5684   38.7536   29.0577 C.ar    1  UNL1        0.0683
     14 C          22.5520   39.4158   28.3898 C.ar    1  UNL1        0.0694
     15 C          22.7887   40.6540   27.8226 C.ar    1  UNL1        0.0275
     16 CL         20.9781   38.6932   28.2698 Cl      1  UNL1       -0.0813
     17 CL         23.2671   37.2015   29.7745 Cl      1  UNL1       -0.0814
     18 C          25.6107   42.2311   22.6208 C.3     1  UNL1        0.2544
     19 O          24.1817   42.0756   22.4162 O.3     1  UNL1       -0.4418
     20 C          23.7508   40.8679   22.0194 C.2     1  UNL1        0.3174
     21 O          23.2398   40.1169   22.8163 O.2     1  UNL1       -0.2501
     22 C          23.9042   40.4485   20.5801 C.3     1  UNL1        0.1100
     23 C          25.0688   39.4638   20.4571 C.3     1  UNL1        0.0198
     24 C          25.6058   39.4853   19.0246 C.3     1  UNL1        0.0703
     25 C          24.7458   38.6071   18.1526 C.2     1  UNL1        0.1790
     26 O          24.4157   37.5042   18.5395 O.2     1  UNL1       -0.2908
     27 C          24.3238   39.0666   16.8856 C.ar    1  UNL1        0.0641
     28 C          23.7678   38.3474   15.8322 C.ar    1  UNL1        0.0099
     29 C          23.4503   39.0487   14.6990 C.ar    1  UNL1        0.0076
     30 C          23.6885   40.3880   14.6567 C.ar    1  UNL1        0.0355
     31 S          24.3717   40.7193   16.2152 S.2     1  UNL1       -0.0836
@<TRIPOS>BOND
     1     6     7    1
     2     7     8    2
     3     7     9   am
     4     9    10    1
     5     9     1    1
     6    10    15   ar
     7    10    11   ar
     8    11    12   ar
     9    12    13   ar
    10    13    14   ar
    11    13    17    1
    12    14    15   ar
    13    14    16    1
    14     1     5   ar
    15     1     2   ar
    16     2     3   ar
    17     3     4   ar
    18     3    18    1
    19     4     5   ar
    20    18    19    1
    21    19    20    1
    22    20    21    2
    23    20    22    1
    24    22    23    1
    25    23    24    1
    26    24    25    1
    27    25    26    2
    28    25    27    1
    29    27    31   ar
    30    27    28   ar
    31    28    29   ar
    32    29    30   ar
    33    30    31   ar
@<TRIPOS>MOLECULE
ZINC24788682
 32 34 0 0 0
SMALL
GASTEIGER

@<TRIPOS>ATOM
      1 O          11.3502   37.1997   27.2576 O.3     1  UNL1       -0.4393
      2 C          12.6219   36.9476   27.6052 C.2     1  UNL1        0.3289
      3 O          13.2277   36.0493   27.0705 O.2     1  UNL1       -0.2491
      4 C          13.2942   37.7852   28.6624 C.3     1  UNL1        0.1734
      5 S          15.0067   37.2366   28.8681 S.3     1  UNL1       -0.0748
      6 C          15.5164   38.3067   30.1718 C.ar    1  UNL1        0.1588
      7 N          16.6617   38.3473   30.8044 N.ar    1  UNL1       -0.1511
      8 N          16.8747   39.2691   31.8034 N.ar    1  UNL1       -0.2160
      9 C          15.8712   40.1237   32.1248 C.ar    1  UNL1        0.1497
     10 S          15.8324   41.3590   33.3095 S.2     1  UNL1       -0.0229
     11 S          14.6014   39.6116   30.9774 S.2     1  UNL1       -0.0340
     12 C          18.0991   39.3201   32.4781 C.ar    1  UNL1        0.0840
     13 C          18.1271   39.3873   33.8655 C.ar    1  UNL1        0.0192
     14 C          19.3376   39.4328   34.5286 C.ar    1  UNL1        0.0015
     15 C          20.5208   39.4222   33.8127 C.ar    1  UNL1        0.0001
     16 C          20.4963   39.3608   32.4313 C.ar    1  UNL1        0.0015
     17 C          19.2895   39.3097   31.7621 C.ar    1  UNL1        0.0192
     18 C          10.7710   36.3610   26.2234 C.3     1  UNL1        0.2766
     19 C           9.7227   37.1411   25.4727 C.2     1  UNL1        0.2181
     20 O           8.6236   36.6604   25.2900 O.2     1  UNL1       -0.2873
     21 C          10.3479   42.1868   25.1393 C.3     1  UNL1        0.0500
     22 C          10.3009   40.7118   24.8334 C.ar    1  UNL1        0.0373
     23 C           9.9145   39.7511   25.6893 C.ar    1  UNL1        0.0168
     24 C          10.0304   38.4793   24.9634 C.ar    1  UNL1        0.0512
     25 C          10.4839   38.8055   23.6992 C.ar    1  UNL1        0.0400
     26 N          10.6445   40.1396   23.6428 N.ar    1  UNL1       -0.3332
     27 C          10.7553   37.8344   22.5793 C.3     1  UNL1        0.0501
     28 C          11.1159   40.8757   22.4672 C.3     1  UNL1        0.1145
     29 C          12.5443   41.3664   22.7116 C.3     1  UNL1        0.0271
     30 C          10.2004   42.0755   22.2157 C.3     1  UNL1        0.1646
     31 O          10.9531   43.1314   21.6151 O.3     1  UNL1       -0.3491
     32 C          10.8443   43.1856   20.1914 C.3     1  UNL1        0.1742
@<TRIPOS>BOND
     1    21    22    1
     2    22    26   ar
     3    22    23   ar
     4    23    24   ar
     5    24    25   ar
     6    24    19    1
     7    25    26   ar
     8    25    27    1
     9    26    28    1
    10    28    29    1
    11    28    30    1
    12    30    31    1
    13    31    32    1
    14    19    20    2
    15    19    18    1
    16    18     1    1
    17     1     2    1
    18     2     3    2
    19     2     4    1
    20     4     5    1
    21     5     6    1
    22     6    11   ar
    23     6     7   ar
    24     7     8   ar
    25     8     9   ar
    26     8    12    1
    27     9    10    2
    28     9    11   ar
    29    12    17   ar
    30    12    13   ar
    31    13    14   ar
    32    14    15   ar
    33    15    16   ar
    34    16    17   ar
@<TRIPOS>MOLECULE
ZINC25522789
 34 37 0 0 0
SMALL
GASTEIGER

@<TRIPOS>ATOM
      1 C          24.6125   39.9305   28.0227 C.3     1  UNL1        0.1111
      2 C          24.6739   39.1158   29.3167 C.3     1  UNL1        0.0339
      3 C          25.1697   37.7009   29.0023 C.3     1  UNL1        0.0967
      4 N          26.4501   37.7962   28.2879 N.3     1  UNL1       -0.1555
      5 C          26.5243   38.6282   27.0792 C.3     1  UNL1        0.0967
      6 C          26.0134   40.0326   27.4151 C.3     1  UNL1        0.0339
      7 C          24.0931   41.3127   28.3237 C.ar    1  UNL1       -0.0127
      8 C          24.9784   42.3434   28.5785 C.ar    1  UNL1       -0.0038
      9 C          24.5020   43.6124   28.8499 C.ar    1  UNL1       -0.0003
     10 C          23.1402   43.8484   28.8769 C.ar    1  UNL1       -0.0000
     11 C          22.2548   42.8166   28.6272 C.ar    1  UNL1       -0.0003
     12 C          22.7312   41.5487   28.3507 C.ar    1  UNL1       -0.0038
     13 S          27.7840   36.9811   28.8345 S.O2    1  UNL1        0.0633
     14 O          28.8583   37.3383   27.9758 O.2     1  UNL1       -0.1528
     15 O          27.8339   37.1805   30.2406 O.2     1  UNL1       -0.1528
     16 C          27.4854   35.2634   28.5798 C.ar    1  UNL1        0.1222
     17 C          27.4211   34.4051   29.6615 C.ar    1  UNL1        0.0199
     18 C          27.1821   33.0583   29.4619 C.ar    1  UNL1        0.0014
     19 C          27.0174   32.5681   28.1799 C.ar    1  UNL1        0.0001
     20 C          27.0873   33.4254   27.0978 C.ar    1  UNL1        0.0014
     21 C          27.3211   34.7730   27.2978 C.ar    1  UNL1        0.0199
     22 C          23.6902   39.2499   27.0442 C.2     1  UNL1        0.3203
     23 O          23.6525   39.6172   25.8938 O.2     1  UNL1       -0.2498
     24 O          22.9106   38.2356   27.4507 O.3     1  UNL1       -0.4397
     25 C          21.4788   38.3887   27.2640 C.3     1  UNL1        0.2771
     26 C          20.7474   37.5916   28.3130 C.2     1  UNL1        0.2229
     27 O          20.3912   36.4555   28.0736 O.2     1  UNL1       -0.2869
     28 C          19.4766   39.1763   31.8321 C.ar    1  UNL1        0.0074
     29 C          20.8291   39.1528   31.6830 C.ar    1  UNL1        0.0028
     30 C          21.3672   38.6388   30.5328 C.ar    1  UNL1        0.0096
     31 C          20.4762   38.1656   29.5746 C.ar    1  UNL1        0.0676
     32 S          18.9016   38.4804   30.3521 S.2     1  UNL1       -0.0883
     33 C          19.4543   39.4634   34.2951 C.3     1  UNL1        0.0056
     34 C          18.6728   39.6892   32.9992 C.3     1  UNL1        0.0330
@<TRIPOS>BOND
     1    33    34    1
     2    34    28    1
     3    28    32   ar
     4    28    29   ar
     5    29    30   ar
     6    30    31   ar
     7    31    32   ar
     8    31    26    1
     9    26    27    2
    10    26    25    1
    11    25    24    1
    12    24    22    1
    13    22    23    2
    14    22     1    1
    15     1     6    1
    16     1     2    1
    17     1     7    1
    18     2     3    1
    19     3     4    1
    20     4     5    1
    21     4    13    1
    22     5     6    1
    23    13    14    2
    24    13    15    2
    25    13    16    1
    26    16    21   ar
    27    16    17   ar
    28    17    18   ar
    29    18    19   ar
    30    19    20   ar
    31    20    21   ar
    32     7    12   ar
    33     7     8   ar
    34     8     9   ar
    35     9    10   ar
    36    10    11   ar
    37    11    12   ar
@<TRIPOS>MOLECULE
ZINC19825505
 39 42 0 0 0
SMALL
GASTEIGER

@<TRIPOS>ATOM
      1 C          25.3402   38.0813   29.7347 C.3     1  UNL1        0.0644
      2 C          25.8620   36.6917   29.5359 C.3     1  UNL1        0.1018
      3 C          26.4009   36.4137   28.1583 C.2     1  UNL1        0.0440
      4 N          26.5848   37.3308   27.2828 N.2     1  UNL1       -0.2579
      5 C          26.3951   38.6325   27.5527 C.2     1  UNL1        0.0612
      6 C          25.8875   39.0518   28.7266 C.2     1  UNL1        0.0714
      7 C          26.7626   39.6556   26.5090 C.3     1  UNL1        0.0520
      8 C          26.7699   34.9677   27.8808 C.3     1  UNL1        0.0465
      9 C          27.8533   34.5778   28.8960 C.3     1  UNL1        0.0353
     10 C          27.3729   34.7846   30.3316 C.3     1  UNL1        0.0696
     11 C          26.8935   36.2160   30.5224 C.2     1  UNL1        0.1565
     12 O          27.3133   36.9233   31.4066 O.2     1  UNL1       -0.2957
     13 C          21.0756   38.0181   29.4231 C.ar    1  UNL1        0.1722
     14 C          21.6807   38.3900   30.6129 C.ar    1  UNL1        0.0397
     15 C          23.0595   38.4096   30.7104 C.ar    1  UNL1       -0.0006
     16 C          23.8376   38.0582   29.6229 C.ar    1  UNL1       -0.0142
     17 C          23.2402   37.6913   28.4314 C.ar    1  UNL1        0.0361
     18 C          21.8586   37.6649   28.3284 C.ar    1  UNL1        0.1721
     19 O          21.2693   37.2991   27.1586 O.3     1  UNL1       -0.4684
     20 C          21.9315   37.6811   25.9514 C.3     1  UNL1        0.2526
     21 O          19.7192   37.9980   29.3257 O.3     1  UNL1       -0.4724
     22 C          19.0071   39.0596   29.9643 C.3     1  UNL1        0.2056
     23 C          18.4513   39.1520   32.3985 C.3     1  UNL1        0.0040
     24 C          18.1125   38.4843   31.0642 C.3     1  UNL1        0.0473
     25 C          28.2127   33.1274   28.7007 C.ar    1  UNL1       -0.0215
     26 C          27.2544   32.2315   28.2639 C.ar    1  UNL1       -0.0011
     27 C          27.5813   30.9015   28.0841 C.ar    1  UNL1        0.0366
     28 C          28.8726   30.4648   28.3421 C.ar    1  UNL1        0.1387
     29 C          29.8310   31.3645   28.7858 C.ar    1  UNL1        0.0366
     30 C          29.5005   32.6947   28.9581 C.ar    1  UNL1       -0.0011
     31 O          29.1967   29.1568   28.1660 O.3     1  UNL1       -0.4714
     32 C          29.0394   28.6209   26.8506 C.3     1  UNL1        0.2525
     33 C          25.8693   40.4387   29.0183 C.2     1  UNL1        0.3385
     34 O          26.7982   40.9465   29.6175 O.2     1  UNL1       -0.2452
     35 O          24.8215   41.1959   28.6313 O.3     1  UNL1       -0.4494
     36 C          25.1010   42.5449   28.2521 C.3     1  UNL1        0.1693
     37 C          24.8412   42.7178   26.7542 C.3     1  UNL1        0.0473
     38 C          24.1954   43.4940   29.0396 C.3     1  UNL1        0.0436
     39 C          25.0498   44.5617   29.7260 C.3     1  UNL1        0.0038
@<TRIPOS>BOND
     1    23    24    1
     2    24    22    1
     3    22    21    1
     4    21    13    1
     5    13    18   ar
     6    13    14   ar
     7    14    15   ar
     8    15    16   ar
     9    16    17   ar
    10    16     1    1
    11    17    18   ar
    12    18    19    1
    13    19    20    1
    14     1     6    1
    15     1     2    1
    16     2    11    1
    17     2     3    1
    18     3     4    2
    19     3     8    1
    20     4     5    1
    21     5     6    2
    22     5     7    1
    23     6    33    1
    24    33    34    2
    25    33    35    1
    26    35    36    1
    27    36    37    1
    28    36    38    1
    29    38    39    1
    30     8     9    1
    31     9    10    1
    32     9    25    1
    33    10    11    1
    34    11    12    2
    35    25    30   ar
    36    25    26   ar
    37    26    27   ar
    38    27    28   ar
    39    28    29   ar
    40    28    31    1
    41    29    30   ar
    42    31    32    1
@<TRIPOS>MOLECULE
ZINC31518763
 37 40 0 0 0
SMALL
GASTEIGER

@<TRIPOS>ATOM
      1 C          27.3963   35.6760   26.4071 C.3     1  UNL1        0.1859
      2 C          28.8174   35.8720   26.9918 C.3     1  UNL1        0.0474
      3 C          28.9750   37.3938   27.2589 C.3     1  UNL1        0.0042
      4 C          27.5254   37.8673   27.4098 C.3     1  UNL1        0.0038
      5 C          26.8162   37.0803   26.2718 C.3     1  UNL1        0.0401
      6 C          25.3258   37.2485   26.4404 C.3     1  UNL1        0.0038
      7 C          24.9813   38.7407   26.3076 C.3     1  UNL1        0.0004
      8 C          25.7711   39.5898   27.2988 C.3     1  UNL1        0.0035
      9 C          27.2845   39.3466   27.1708 C.3     1  UNL1        0.0007
     10 C          28.0354   40.1736   28.2146 C.3     1  UNL1        0.0044
     11 C          27.8103   41.6683   27.9594 C.3     1  UNL1        0.0221
     12 C          26.3106   41.9119   27.9424 C.2     1  UNL1       -0.0420
     13 C          25.8012   42.8273   28.7621 C.2     1  UNL1        0.0289
     14 C          24.3440   43.0102   28.8132 C.2     1  UNL1        0.1725
     15 O          23.8403   44.0543   29.1712 O.2     1  UNL1       -0.2914
     16 C          23.5064   41.8179   28.3918 C.3     1  UNL1        0.0694
     17 C          24.0068   41.3632   27.0213 C.3     1  UNL1        0.0118
     18 C          25.4866   41.0666   27.0214 C.3     1  UNL1        0.0157
     19 C          25.9821   41.3489   25.6016 C.3     1  UNL1        0.0041
     20 C          27.2009   37.6716   24.9140 C.3     1  UNL1        0.0039
     21 C          28.7970   34.9113   24.3416 C.3     1  UNL1        0.0760
     22 C          27.4744   35.0111   25.0570 C.2     1  UNL1        0.1869
     23 O          26.4771   34.5583   24.5483 O.2     1  UNL1       -0.2924
     24 O          26.5851   34.8817   27.3121 O.3     1  UNL1       -0.4486
     25 C          27.2362   34.1275   28.2116 C.2     1  UNL1        0.3171
     26 O          27.8144   33.1278   27.8563 O.2     1  UNL1       -0.2501
     27 C          27.2461   34.5276   29.6644 C.3     1  UNL1        0.1096
     28 C          26.0344   35.4146   29.9574 C.3     1  UNL1        0.0116
     29 C          26.5021   36.7191   30.6058 C.3     1  UNL1        0.0006
     30 C          25.4820   37.8237   30.3227 C.3     1  UNL1        0.0000
     31 C          24.1533   37.1945   29.8994 C.3     1  UNL1        0.0004
     32 C          23.1451   38.2996   29.5777 C.3     1  UNL1        0.0078
     33 C          21.7242   37.7621   29.7586 C.3     1  UNL1        0.0659
     34 C          21.1129   37.4938   28.4075 C.2     1  UNL1        0.1670
     35 O          20.4766   36.4844   28.2224 O.2     1  UNL1       -0.2947
     36 C          21.2956   38.4854   27.2875 C.3     1  UNL1        0.1589
     37 CL         21.8461   37.6214   25.8038 Cl      1  UNL1       -0.1053
@<TRIPOS>BOND
     1    21    22    1
     2    22    23    2
     3    22     1    1
     4     1     5    1
     5     1     2    1
     6     1    24    1
     7     2     3    1
     8     3     4    1
     9     4     9    1
    10     4     5    1
    11     5     6    1
    12     5    20    1
    13     6     7    1
    14     7     8    1
    15     8    18    1
    16     8     9    1
    17     9    10    1
    18    10    11    1
    19    11    12    1
    20    12    18    1
    21    12    13    2
    22    13    14    1
    23    14    15    2
    24    14    16    1
    25    16    17    1
    26    17    18    1
    27    18    19    1
    28    24    25    1
    29    25    26    2
    30    25    27    1
    31    27    28    1
    32    28    29    1
    33    29    30    1
    34    30    31    1
    35    31    32    1
    36    32    33    1
    37    33    34    1
    38    34    35    2
    39    34    36    1
    40    36    37    1
@<TRIPOS>MOLECULE
ZINC09241967
 36 39 0 0 0
SMALL
GASTEIGER

@<TRIPOS>ATOM
      1 N          25.3269   41.1478   24.4296 N.am    1  UNL1       -0.2308
      2 C          24.9471   41.6337   23.2312 C.2     1  UNL1        0.2544
      3 O          24.5990   42.7937   23.1284 O.2     1  UNL1       -0.2695
      4 C          22.3185   42.6428   28.5350 C.3     1  UNL1        0.0326
      5 C          23.6662   43.3168   28.5158 C.ar    1  UNL1       -0.0037
      6 C          23.9908   44.2114   29.5022 C.ar    1  UNL1       -0.0027
      7 C          25.2199   44.8540   29.5224 C.ar    1  UNL1        0.0003
      8 C          26.1402   44.5871   28.5248 C.ar    1  UNL1        0.0081
      9 C          25.8240   43.6933   27.5330 C.ar    1  UNL1        0.0494
     10 C          24.5818   43.0200   27.4801 C.ar    1  UNL1        0.0853
     11 N          24.4203   42.1711   26.4422 N.ar    1  UNL1       -0.2240
     12 C          25.3514   41.9782   25.5370 C.ar    1  UNL1        0.1693
     13 S          26.6617   43.0540   26.1025 S.2     1  UNL1       -0.0512
     14 C          24.9541   40.7562   22.0421 C.ar    1  UNL1        0.0540
     15 C          26.1359   40.5542   21.3267 C.ar    1  UNL1        0.0059
     16 C          26.1367   39.7292   20.2211 C.ar    1  UNL1        0.0201
     17 C          24.9673   39.1115   19.8141 C.ar    1  UNL1        0.1222
     18 C          23.7914   39.3119   20.5153 C.ar    1  UNL1        0.0201
     19 C          23.7779   40.1298   21.6260 C.ar    1  UNL1        0.0059
     20 S          24.9757   38.0646   18.3969 S.O2    1  UNL1        0.0639
     21 O          26.2713   37.4850   18.3278 O.2     1  UNL1       -0.1528
     22 O          23.7928   37.2802   18.4642 O.2     1  UNL1       -0.1528
     23 N          24.8220   39.0396   17.0671 N.3     1  UNL1       -0.1466
     24 C          25.2856   38.5721   15.7584 C.3     1  UNL1        0.1222
     25 C          24.1713   37.8304   15.0663 C.2     1  UNL1       -0.0071
     26 C          23.1839   38.4945   14.5182 C.2     1  UNL1       -0.0034
     27 C          24.2222   40.3696   17.1994 C.3     1  UNL1        0.1222
     28 C          25.2212   41.4155   16.7757 C.2     1  UNL1       -0.0071
     29 C          25.5991   42.3412   17.6221 C.2     1  UNL1       -0.0034
     30 C          25.7138   39.7409   24.5604 C.3     1  UNL1        0.1285
     31 C          24.7429   39.0354   25.4717 C.ar    1  UNL1        0.0173
     32 C          25.1478   38.5937   26.7222 C.ar    1  UNL1        0.0005
     33 C          24.2205   37.9493   27.5264 C.ar    1  UNL1        0.0204
     34 C          22.9325   37.7697   27.0584 C.ar    1  UNL1        0.0989
     35 N          22.5825   38.2029   25.8632 N.ar    1  UNL1       -0.2426
     36 C          23.4379   38.8201   25.0715 C.ar    1  UNL1        0.0962
@<TRIPOS>BOND
     1     4     5    1
     2     5    10   ar
     3     5     6   ar
     4     6     7   ar
     5     7     8   ar
     6     8     9   ar
     7     9    13   ar
     8     9    10   ar
     9    10    11   ar
    10    11    12   ar
    11    12    13   ar
    12    12     1    1
    13     1    30    1
    14     1     2   am
    15    30    31    1
    16    31    36   ar
    17    31    32   ar
    18    32    33   ar
    19    33    34   ar
    20    34    35   ar
    21    35    36   ar
    22     2     3    2
    23     2    14    1
    24    14    19   ar
    25    14    15   ar
    26    15    16   ar
    27    16    17   ar
    28    17    18   ar
    29    17    20    1
    30    18    19   ar
    31    20    21    2
    32    20    22    2
    33    20    23    1
    34    23    24    1
    35    23    27    1
    36    24    25    1
    37    25    26    2
    38    27    28    1
    39    28    29    2
@<TRIPOS>MOLECULE
ZINC02083011
 38 42 0 0 0
SMALL
GASTEIGER

@<TRIPOS>ATOM
      1 C          10.6980   38.0173   24.8284 C.3     1  UNL1        0.0504
      2 C          10.5500   38.9502   26.0027 C.ar    1  UNL1        0.0415
      3 C          10.5968   38.5880   27.2955 C.ar    1  UNL1        0.0171
      4 C          10.3997   39.8161   28.0780 C.ar    1  UNL1        0.0487
      5 C          10.2542   40.8347   27.1547 C.ar    1  UNL1        0.0442
      6 N          10.3501   40.3001   25.9220 N.ar    1  UNL1       -0.3134
      7 C          10.0283   42.2904   27.4722 C.3     1  UNL1        0.0505
      8 C          10.2527   41.0247   24.7256 C.ar    1  UNL1        0.0638
      9 C           9.2103   41.9209   24.5427 C.ar    1  UNL1        0.0239
     10 C           9.1099   42.6444   23.3525 C.ar    1  UNL1        0.0773
     11 C          10.0622   42.4690   22.3501 C.ar    1  UNL1        0.0130
     12 C          11.1049   41.5629   22.5350 C.ar    1  UNL1        0.0773
     13 C          11.1986   40.8430   23.7280 C.ar    1  UNL1        0.0239
     14 C          12.1133   41.3686   21.4727 C.2     1  UNL1        0.3414
     15 O          13.2636   41.1126   21.7667 O.2     1  UNL1       -0.2449
     16 O          11.7568   41.4753   20.1780 O.3     1  UNL1       -0.4413
     17 C          11.8408   42.7948   19.5778 C.3     1  UNL1        0.2560
     18 C           7.9990   43.5990   23.1586 C.2     1  UNL1        0.3414
     19 O           8.1600   44.5867   22.4699 O.2     1  UNL1       -0.2449
     20 O           6.8075   43.3741   23.7453 O.3     1  UNL1       -0.4413
     21 C           5.6598   43.2204   22.8693 C.3     1  UNL1        0.2560
     22 C          10.3655   39.9364   29.5368 C.2     1  UNL1        0.1854
     23 O           9.9094   40.9356   30.0526 O.2     1  UNL1       -0.2904
     24 C          10.8966   38.8195   30.3977 C.3     1  UNL1        0.1325
     25 S          12.3253   39.4101   31.3390 S.3     1  UNL1       -0.0865
     26 C          13.6269   38.6390   30.4358 C.ar    1  UNL1        0.1104
     27 C          14.9844   38.8377   30.8151 C.ar    1  UNL1        0.0436
     28 C          15.5205   39.6393   31.9162 C.ar    1  UNL1       -0.0162
     29 C          16.8611   39.6607   32.0609 C.ar    1  UNL1        0.0048
     30 S          17.4834   38.6303   30.7592 S.2     1  UNL1       -0.0726
     31 C          15.9378   38.1712   30.0201 C.ar    1  UNL1        0.1138
     32 N          15.5791   37.4187   28.9978 N.ar    1  UNL1       -0.2173
     33 C          14.3039   37.2719   28.6940 C.ar    1  UNL1        0.1998
     34 N          13.3552   37.8625   29.3984 N.ar    1  UNL1       -0.2176
     35 C          17.6505   40.3987   33.0990 C.3     1  UNL1        0.0327
     36 C          16.7313   41.4355   33.7604 C.3     1  UNL1        0.0055
     37 C          15.4121   40.7535   34.1349 C.3     1  UNL1        0.0050
     38 C          14.6211   40.4222   32.8690 C.3     1  UNL1        0.0267
@<TRIPOS>BOND
     1     1     2    1
     2     2     6   ar
     3     2     3   ar
     4     3     4   ar
     5     4     5   ar
     6     4    22    1
     7     5     6   ar
     8     5     7    1
     9     6     8    1
    10     8    13   ar
    11     8     9   ar
    12     9    10   ar
    13    10    11   ar
    14    10    18    1
    15    11    12   ar
    16    12    13   ar
    17    12    14    1
    18    14    15    2
    19    14    16    1
    20    16    17    1
    21    18    19    2
    22    18    20    1
    23    20    21    1
    24    22    23    2
    25    22    24    1
    26    24    25    1
    27    25    26    1
    28    26    34   ar
    29    26    27   ar
    30    27    31   ar
    31    27    28   ar
    32    28    38    1
    33    28    29   ar
    34    29    30   ar
    35    29    35    1
    36    30    31   ar
    37    31    32   ar
    38    32    33   ar
    39    33    34   ar
    40    35    36    1
    41    36    37    1
    42    37    38    1
@<TRIPOS>MOLECULE
ZINC13950851
 38 41 0 0 0
SMALL
GASTEIGER

@<TRIPOS>ATOM
      1 N          21.3315   37.7666   29.7204 N.am    1  UNL1       -0.2753
      2 C          20.7774   38.9561   30.0276 C.2     1  UNL1        0.2499
      3 O          21.3150   39.9868   29.6725 O.2     1  UNL1       -0.2698
      4 H          20.8961   36.9317   30.0081 H       1  UNL1        0.1556
      5 C          19.5158   39.0075   30.7963 C.ar    1  UNL1        0.0567
      6 C          18.2948   38.7386   30.1965 C.ar    1  UNL1        0.0268
      7 C          17.1202   38.7955   30.9668 C.ar    1  UNL1        0.1158
      8 N          17.1344   39.1062   32.2489 N.ar    1  UNL1       -0.2423
      9 C          18.2636   39.3834   32.9026 C.ar    1  UNL1        0.0815
     10 C          19.5054   39.3501   32.2195 C.ar    1  UNL1        0.0221
     11 C          20.6867   39.6416   32.9092 C.ar    1  UNL1        0.0016
     12 C          20.6330   39.9558   34.2352 C.ar    1  UNL1        0.0001
     13 C          19.4160   39.9900   34.9118 C.ar    1  UNL1        0.0015
     14 C          18.2478   39.7118   34.2710 C.ar    1  UNL1        0.0191
     15 C          15.8279   38.5023   30.3188 C.ar    1  UNL1        0.1624
     16 C          14.5988   38.8358   30.7999 C.ar    1  UNL1        0.0418
     17 C          13.6568   38.3670   29.8649 C.ar    1  UNL1        0.0361
     18 C          14.3479   37.7692   28.8729 C.ar    1  UNL1        0.1234
     19 O          15.6582   37.8529   29.1504 O.2     1  UNL1       -0.4562
     20 C          13.7480   37.1148   27.6551 C.3     1  UNL1        0.0725
     21 C          24.5165   37.7373   27.2374 C.ar    1  UNL1        0.0804
     22 C          24.8297   37.4341   28.5343 C.ar    1  UNL1       -0.0035
     23 C          23.7980   37.4239   29.4609 C.ar    1  UNL1        0.0920
     24 C          22.5090   37.7187   29.0028 C.ar    1  UNL1        0.0870
     25 S          22.7566   38.0121   27.3126 S.2     1  UNL1       -0.0677
     26 C          26.2467   37.1225   28.9418 C.3     1  UNL1        0.0320
     27 N          25.9062   39.0068   25.6909 N.am    1  UNL1       -0.2757
     28 C          25.4054   37.8164   26.0764 C.2     1  UNL1        0.2548
     29 O          25.6920   36.8069   25.4595 O.2     1  UNL1       -0.2694
     30 C          25.9803   39.8740   23.4053 C.3     1  UNL1        0.0233
     31 C          26.7349   39.0973   24.4862 C.3     1  UNL1        0.0938
     32 C          25.6218   40.2102   26.4765 C.3     1  UNL1        0.0938
     33 C          26.8706   40.6121   27.2639 C.3     1  UNL1        0.0233
     34 C          24.0482   37.1090   30.8718 C.2     1  UNL1        0.3426
     35 O          23.7748   37.9218   31.7339 O.2     1  UNL1       -0.2448
     36 O          24.5816   35.9183   31.2125 O.3     1  UNL1       -0.4454
     37 C          25.1076   35.7931   32.5600 C.3     1  UNL1        0.2089
     38 C          26.5943   36.1546   32.5629 C.3     1  UNL1        0.0513
@<TRIPOS>BOND
     1    30    31    1
     2    31    27    1
     3    27    32    1
     4    27    28   am
     5    32    33    1
     6    28    29    2
     7    28    21    1
     8    21    25   ar
     9    21    22   ar
    10    22    23   ar
    11    22    26    1
    12    23    24   ar
    13    23    34    1
    14    24    25   ar
    15    24     1    1
    16     1     2   am
    17     2     3    2
    18     2     5    1
    19     5    10   ar
    20     5     6   ar
    21     6     7   ar
    22     7     8   ar
    23     7    15    1
    24     8     9   ar
    25     9    14   ar
    26     9    10   ar
    27    10    11   ar
    28    11    12   ar
    29    12    13   ar
    30    13    14   ar
    31    15    19   ar
    32    15    16   ar
    33    16    17   ar
    34    17    18   ar
    35    18    19   ar
    36    18    20    1
    37    34    35    2
    38    34    36    1
    39    36    37    1
    40    37    38    1
    41     1     4    1
@<TRIPOS>MOLECULE
ZINC13643810
 36 39 0 0 0
SMALL
GASTEIGER

@<TRIPOS>ATOM
      1 C          22.4623   37.6695   27.4693 C.ar    1  UNL1        0.1105
      2 C          22.5427   37.8151   26.0724 C.ar    1  UNL1        0.1281
      3 N          23.7824   37.6329   25.7018 N.ar    1  UNL1       -0.1621
      4 N          24.5721   37.3610   26.8248 N.ar    1  UNL1       -0.2106
      5 C          23.7650   37.3867   27.9274 C.ar    1  UNL1        0.1694
      6 N          24.2582   37.1529   29.1420 N.ar    1  UNL1       -0.2263
      7 C          25.5465   36.9005   29.3128 C.ar    1  UNL1        0.0843
      8 C          26.4107   36.8717   28.1983 C.ar    1  UNL1        0.0395
      9 C          25.9057   37.1040   26.9634 C.ar    1  UNL1        0.1295
     10 C          26.0796   36.6493   30.6718 C.ar    1  UNL1        0.0177
     11 C          27.4570   36.6270   30.8906 C.ar    1  UNL1        0.0012
     12 C          27.9474   36.3972   32.1597 C.ar    1  UNL1       -0.0042
     13 C          27.0762   36.1790   33.2120 C.ar    1  UNL1       -0.0218
     14 C          25.7091   36.1948   33.0003 C.ar    1  UNL1       -0.0042
     15 C          25.2065   36.4287   31.7368 C.ar    1  UNL1        0.0012
     16 C          27.6186   35.9225   34.5943 C.3     1  UNL1        0.0310
     17 N          21.0875   38.8739   29.0803 N.am    1  UNL1       -0.2351
     18 C          21.2564   37.7943   28.2915 C.2     1  UNL1        0.2587
     19 O          20.4048   36.9254   28.2584 O.2     1  UNL1       -0.2694
     20 C          20.0064   38.9398   29.9394 C.ar    1  UNL1        0.1689
     21 N          18.7271   38.7168   29.6798 N.ar    1  UNL1       -0.2279
     22 C          17.8124   38.8163   30.6081 C.ar    1  UNL1        0.0736
     23 C          18.2231   39.1768   31.8848 C.ar    1  UNL1        0.1211
     24 S          19.9840   39.3433   31.6281 S.2     1  UNL1       -0.0450
     25 C          16.3602   38.5549   30.3018 C.3     1  UNL1        0.0529
     26 C          17.4577   39.3621   33.0645 C.2     1  UNL1        0.3486
     27 O          16.2825   39.6671   32.9854 O.2     1  UNL1       -0.2443
     28 O          18.0329   39.2002   34.2743 O.3     1  UNL1       -0.4451
     29 C          19.1261   40.0635   34.5936 C.3     1  UNL1        0.2089
     30 C          18.6005   41.4763   34.8556 C.3     1  UNL1        0.0513
     31 C          22.0493   39.9776   29.0273 C.3     1  UNL1        0.1004
     32 C          22.2961   42.4243   28.5850 C.3     1  UNL1        0.0018
     33 C          21.3762   41.2123   28.4244 C.3     1  UNL1        0.0220
     34 C          26.8064   37.0798   25.7554 C.3     1  UNL1        0.3583
     35 F          26.9029   38.3686   25.2198 F       1  UNL1       -0.1915
     36 F          28.0784   36.6344   26.1309 F       1  UNL1       -0.1915
@<TRIPOS>BOND
     1    32    33    1
     2    33    31    1
     3    31    17    1
     4    17    20    1
     5    17    18   am
     6    20    24   ar
     7    20    21   ar
     8    21    22   ar
     9    22    23   ar
    10    22    25    1
    11    23    24   ar
    12    23    26    1
    13    26    27    2
    14    26    28    1
    15    28    29    1
    16    29    30    1
    17    18    19    2
    18    18     1    1
    19     1     5   ar
    20     1     2   ar
    21     2     3   ar
    22     3     4   ar
    23     4     9   ar
    24     4     5   ar
    25     5     6   ar
    26     6     7   ar
    27     7     8   ar
    28     7    10    1
    29     8     9   ar
    30     9    34    1
    31    34    35    1
    32    34    36    1
    33    10    15   ar
    34    10    11   ar
    35    11    12   ar
    36    12    13   ar
    37    13    14   ar
    38    13    16    1
    39    14    15   ar
@<TRIPOS>MOLECULE
ZINC00633241
 36 39 0 0 0
SMALL
GASTEIGER

@<TRIPOS>ATOM
      1 C          23.0150   40.7979   28.1260 C.ar    1  UNL1        0.2224
      2 N          23.8971   39.8258   27.9460 N.ar    1  UNL1       -0.2178
      3 C          23.5391   38.5552   28.0509 C.ar    1  UNL1        0.0668
      4 C          22.2259   38.2456   28.3523 C.ar    1  UNL1        0.0725
      5 C          21.3214   39.2902   28.5359 C.ar    1  UNL1        0.2288
      6 N          21.7494   40.5416   28.4209 N.ar    1  UNL1       -0.1787
      7 C          25.3179   43.6701   27.9364 C.3     1  UNL1        0.1188
      8 C          24.5700   44.6201   28.8759 C.3     1  UNL1        0.0146
      9 C          23.0624   44.4428   28.6742 C.3     1  UNL1        0.0221
     10 C          22.6865   42.9820   28.9325 C.3     1  UNL1        0.0936
     11 N          23.4275   42.1138   28.0086 N.pl3   1  UNL1       -0.2776
     12 C          24.8765   42.2317   28.2160 C.3     1  UNL1        0.1046
     13 C          26.8012   43.7957   28.1703 C.2     1  UNL1        0.3181
     14 O          27.2378   44.7378   28.7881 O.2     1  UNL1       -0.2501
     15 O          27.6375   42.8609   27.6923 O.3     1  UNL1       -0.4485
     16 C          28.8419   41.7909   25.8661 C.3     1  UNL1        0.0513
     17 C          28.1745   43.0758   26.3604 C.3     1  UNL1        0.2086
     18 O          20.0246   39.0321   28.8327 O.3     1  UNL1       -0.4516
     19 C          19.7732   38.0793   29.8676 C.3     1  UNL1        0.2753
     20 C          18.5927   38.5295   30.6889 C.2     1  UNL1        0.2170
     21 O          17.4651   38.2999   30.3065 O.2     1  UNL1       -0.2874
     22 C          18.8082   39.2478   31.9552 C.ar    1  UNL1        0.0384
     23 C          17.7170   39.7372   32.6802 C.ar    1  UNL1        0.0026
     24 C          17.9269   40.4042   33.8687 C.ar    1  UNL1       -0.0042
     25 C          19.2139   40.6002   34.3385 C.ar    1  UNL1       -0.0218
     26 C          20.2992   40.1238   33.6239 C.ar    1  UNL1       -0.0042
     27 C          20.1056   39.4494   32.4369 C.ar    1  UNL1        0.0026
     28 C          19.4346   41.3356   35.6351 C.3     1  UNL1        0.0310
     29 C          24.5521   37.4587   27.8443 C.3     1  UNL1        0.0507
     30 C          25.7333   37.6703   28.7934 C.3     1  UNL1        0.0326
     31 C          25.6467   36.6852   29.9306 C.ar    1  UNL1       -0.0218
     32 C          26.3313   35.4864   29.8602 C.ar    1  UNL1       -0.0043
     33 C          26.2554   34.5847   30.9052 C.ar    1  UNL1       -0.0003
     34 C          25.4875   34.8779   32.0167 C.ar    1  UNL1       -0.0000
     35 C          24.7989   36.0746   32.0848 C.ar    1  UNL1       -0.0003
     36 C          24.8782   36.9781   31.0417 C.ar    1  UNL1       -0.0043
@<TRIPOS>BOND
     1    16    17    1
     2    17    15    1
     3    15    13    1
     4    13    14    2
     5    13     7    1
     6     7    12    1
     7     7     8    1
     8     8     9    1
     9     9    10    1
    10    10    11    1
    11    11    12    1
    12    11     1    1
    13     1     6   ar
    14     1     2   ar
    15     2     3   ar
    16     3     4   ar
    17     3    29    1
    18     4     5   ar
    19     5     6   ar
    20     5    18    1
    21    18    19    1
    22    19    20    1
    23    20    21    2
    24    20    22    1
    25    22    27   ar
    26    22    23   ar
    27    23    24   ar
    28    24    25   ar
    29    25    26   ar
    30    25    28    1
    31    26    27   ar
    32    29    30    1
    33    30    31    1
    34    31    36   ar
    35    31    32   ar
    36    32    33   ar
    37    33    34   ar
    38    34    35   ar
    39    35    36   ar
@<TRIPOS>MOLECULE
ZINC23533229
 34 37 0 0 0
SMALL
GASTEIGER

@<TRIPOS>ATOM
      1 C          21.7361   37.6704   29.6714 C.3     1  UNL1        0.1339
      2 C          20.3804   38.3132   29.8133 C.2     1  UNL1        0.1854
      3 O          19.6530   38.4146   28.8474 O.2     1  UNL1       -0.2904
      4 C          20.3857   40.2441   34.5284 C.3     1  UNL1        0.0500
      5 C          19.9617   39.6705   33.2009 C.ar    1  UNL1        0.0372
      6 C          20.7913   39.3154   32.2055 C.ar    1  UNL1        0.0167
      7 C          19.9410   38.8155   31.1170 C.ar    1  UNL1        0.0483
      8 C          18.6414   38.9110   31.5779 C.ar    1  UNL1        0.0399
      9 N          18.6744   39.4225   32.8212 N.ar    1  UNL1       -0.3339
     10 C          17.4025   38.5116   30.8188 C.3     1  UNL1        0.0501
     11 C          17.4945   39.6782   33.6511 C.3     1  UNL1        0.1060
     12 C          16.9783   41.0932   33.3817 C.3     1  UNL1        0.0361
     13 C          15.4504   41.1024   33.4608 C.3     1  UNL1        0.1116
     14 C          14.8812   40.3791   32.2675 C.2     1  UNL1        0.3172
     15 O          15.0279   40.8350   31.1582 O.2     1  UNL1       -0.2501
     16 O          14.2114   39.2283   32.4370 O.3     1  UNL1       -0.4444
     17 C          12.9899   39.0576   31.6708 C.3     1  UNL1        0.2556
     18 S          22.2977   37.8186   27.9572 S.3     1  UNL1       -0.0689
     19 C          23.1240   39.3726   28.0392 C.ar    1  UNL1        0.1746
     20 N          22.4220   40.4723   28.2253 N.ar    1  UNL1       -0.2158
     21 C          23.0206   41.6563   28.2912 C.ar    1  UNL1        0.1168
     22 C          24.4105   41.7966   28.1698 C.ar    1  UNL1        0.0763
     23 C          24.9317   43.1704   28.2659 C.ar    1  UNL1       -0.0136
     24 C          24.0323   44.1491   28.4543 C.ar    1  UNL1        0.0049
     25 S          22.4599   43.3220   28.5280 S.2     1  UNL1       -0.0725
     26 C          24.6777   45.5068   28.5319 C.3     1  UNL1        0.0330
     27 C          26.0858   45.3011   27.9316 C.3     1  UNL1        0.0099
     28 C          26.3249   43.8025   28.2008 C.3     1  UNL1        0.0271
     29 C          25.1484   40.5882   27.9682 C.ar    1  UNL1        0.2642
     30 O          26.3616   40.6154   27.8521 O.2     1  UNL1       -0.2669
     31 N          24.4819   39.4199   27.9094 N.ar    1  UNL1       -0.2714
     32 C          25.2280   38.1762   27.7026 C.3     1  UNL1        0.1374
     33 C          25.7993   37.7088   29.0164 C.2     1  UNL1       -0.0016
     34 C          25.7312   36.4431   29.3470 C.2     1  UNL1       -0.0029
@<TRIPOS>BOND
     1     4     5    1
     2     5     9   ar
     3     5     6   ar
     4     6     7   ar
     5     7     8   ar
     6     7     2    1
     7     8     9   ar
     8     8    10    1
     9     9    11    1
    10    11    12    1
    11    12    13    1
    12    13    14    1
    13    14    15    2
    14    14    16    1
    15    16    17    1
    16     2     3    2
    17     2     1    1
    18     1    18    1
    19    18    19    1
    20    19    31   ar
    21    19    20   ar
    22    20    21   ar
    23    21    25   ar
    24    21    22   ar
    25    22    23   ar
    26    22    29   ar
    27    23    28    1
    28    23    24   ar
    29    24    25   ar
    30    24    26    1
    31    26    27    1
    32    27    28    1
    33    29    30    2
    34    29    31   ar
    35    31    32    1
    36    32    33    1
    37    33    34    2
@<TRIPOS>MOLECULE
ZINC02618903
 36 39 0 0 0
SMALL
GASTEIGER

@<TRIPOS>ATOM
      1 C          19.8274   38.3858   29.5314 C.2     1  UNL1        0.3613
      2 O          20.1074   37.2266   29.2986 O.2     1  UNL1       -0.2431
      3 N          16.5644   38.9257   31.0162 N.ar    1  UNL1       -0.2165
      4 C          16.7522   39.2864   32.3023 C.ar    1  UNL1        0.2763
      5 O          15.8038   39.5267   33.0267 O.2     1  UNL1       -0.2655
      6 C          18.1283   39.3821   32.8089 C.ar    1  UNL1        0.0593
      7 C          18.4282   39.7458   34.1180 C.ar    1  UNL1        0.0048
      8 C          19.7466   39.8128   34.5153 C.ar    1  UNL1        0.0002
      9 C          20.7719   39.5220   33.6250 C.ar    1  UNL1        0.0001
     10 C          20.4954   39.1596   32.3237 C.ar    1  UNL1        0.0019
     11 C          19.1723   39.0859   31.9022 C.ar    1  UNL1        0.0304
     12 C          18.7920   38.7079   30.5314 C.ar    1  UNL1        0.1764
     13 N          17.5215   38.6612   30.2096 N.ar    1  UNL1       -0.1602
     14 C          15.1905   38.8318   30.5161 C.3     1  UNL1        0.1307
     15 C          15.2077   38.3441   29.0661 C.3     1  UNL1        0.0265
     16 C          14.4705   37.0070   28.9689 C.3     1  UNL1        0.0021
     17 C          13.6938   36.9473   27.6521 C.3     1  UNL1        0.0001
     18 C          11.3710   36.3385   26.9618 C.3     1  UNL1        0.0000
     19 C          12.2070   37.1828   27.9257 C.3     1  UNL1        0.0000
     20 O          20.4629   39.3771   28.8761 O.3     1  UNL1       -0.4358
     21 C          21.5202   38.9896   27.9596 C.3     1  UNL1        0.2770
     22 C          22.8496   39.4431   28.5055 C.2     1  UNL1        0.2181
     23 O          23.1598   40.6151   28.4515 O.2     1  UNL1       -0.2873
     24 C          23.7671   38.4696   29.1015 C.ar    1  UNL1        0.0512
     25 C          23.4803   37.5427   30.2046 C.ar    1  UNL1        0.0168
     26 C          24.6086   36.8443   30.4149 C.ar    1  UNL1        0.0377
     27 N          25.5649   37.2624   29.5354 N.ar    1  UNL1       -0.3271
     28 C          25.0788   38.2299   28.7375 C.ar    1  UNL1        0.0404
     29 C          25.8341   38.9328   27.6393 C.3     1  UNL1        0.0501
     30 C          24.7893   35.7696   31.4558 C.3     1  UNL1        0.0500
     31 C          26.9273   36.7281   29.4659 C.3     1  UNL1        0.1704
     32 C          26.9594   35.5559   28.5194 C.ar    1  UNL1        0.1458
     33 C          27.0078   34.2593   28.8743 C.ar    1  UNL1        0.0382
     34 C          27.0206   33.5071   27.6774 C.ar    1  UNL1        0.0435
     35 C          26.9875   34.3893   26.6624 C.ar    1  UNL1        0.1792
     36 O          26.9506   35.6287   27.1784 O.2     1  UNL1       -0.4527
@<TRIPOS>BOND
     1    18    19    1
     2    19    17    1
     3    17    16    1
     4    16    15    1
     5    15    14    1
     6    14     3    1
     7     3    13   ar
     8     3     4   ar
     9     4     5    2
    10     4     6   ar
    11     6    11   ar
    12     6     7   ar
    13     7     8   ar
    14     8     9   ar
    15     9    10   ar
    16    10    11   ar
    17    11    12   ar
    18    12    13   ar
    19    12     1    1
    20     1     2    2
    21     1    20    1
    22    20    21    1
    23    21    22    1
    24    22    23    2
    25    22    24    1
    26    24    28   ar
    27    24    25   ar
    28    25    26   ar
    29    26    27   ar
    30    26    30    1
    31    27    28   ar
    32    27    31    1
    33    28    29    1
    34    31    32    1
    35    32    36   ar
    36    32    33   ar
    37    33    34   ar
    38    34    35   ar
    39    35    36   ar
@<TRIPOS>MOLECULE
ZINC18618142
 35 38 0 0 0
SMALL
GASTEIGER

@<TRIPOS>ATOM
      1 C          14.4940   38.9350   30.2035 C.3     1  UNL1        0.2933
      2 N          16.5370   39.1256   31.5848 N.am    1  UNL1       -0.2313
      3 C          15.9903   38.8868   30.3763 C.2     1  UNL1        0.2757
      4 O          16.7024   38.6331   29.4279 O.2     1  UNL1       -0.2704
      5 C          17.9167   39.0811   31.7442 C.ar    1  UNL1        0.1692
      6 N          18.8502   38.7803   30.8609 N.ar    1  UNL1       -0.2237
      7 C          20.1339   38.7875   31.1873 C.ar    1  UNL1        0.0897
      8 C          20.4995   39.1130   32.4638 C.ar    1  UNL1        0.0572
      9 S          18.8989   39.4239   33.1977 S.2     1  UNL1       -0.0506
     10 C          21.1649   38.4454   30.1776 C.ar    1  UNL1        0.0182
     11 C          22.4900   38.2570   30.5669 C.ar    1  UNL1        0.0015
     12 C          23.4442   37.9337   29.6237 C.ar    1  UNL1        0.0000
     13 C          23.0898   37.8076   28.2925 C.ar    1  UNL1        0.0000
     14 C          21.7773   37.9985   27.8996 C.ar    1  UNL1        0.0000
     15 C          20.8136   38.3166   28.8349 C.ar    1  UNL1        0.0015
     16 C          15.6769   39.4320   32.7304 C.3     1  UNL1        0.1265
     17 C          15.8562   41.5047   34.0083 C.2     1  UNL1       -0.0031
     18 C          15.5458   40.9264   32.8746 C.2     1  UNL1       -0.0043
     19 O          13.9887   37.6066   30.0547 O.3     1  UNL1       -0.4353
     20 C          14.1388   37.0259   28.8459 C.2     1  UNL1        0.3419
     21 O          14.9160   36.1001   28.7080 O.2     1  UNL1       -0.2449
     22 C          13.3912   37.4942   27.7374 C.2     1  UNL1        0.0835
     23 C          12.2125   36.9130   27.4233 C.2     1  UNL1        0.0292
     24 C          11.4370   37.3988   26.2734 C.ar    1  UNL1        0.1234
     25 C          10.9522   38.6793   26.1080 C.ar    1  UNL1        0.1179
     26 N          10.3057   38.6971   24.9237 N.ar    1  UNL1       -0.2257
     27 N          10.4031   37.4061   24.3868 N.ar    1  UNL1       -0.0635
     28 N          11.0725   36.6698   25.2031 N.ar    1  UNL1       -0.1287
     29 C           9.6269   39.8452   24.3175 C.3     1  UNL1        0.1556
     30 C          10.6108   40.6304   23.4890 C.ar    1  UNL1        0.0022
     31 C          11.2163   41.7554   24.0168 C.ar    1  UNL1       -0.0023
     32 C          12.1225   42.4727   23.2585 C.ar    1  UNL1       -0.0003
     33 C          12.4152   42.0712   21.9685 C.ar    1  UNL1       -0.0000
     34 C          11.8056   40.9493   21.4387 C.ar    1  UNL1       -0.0003
     35 C          10.9035   40.2289   22.1990 C.ar    1  UNL1       -0.0023
@<TRIPOS>BOND
     1    17    18    2
     2    18    16    1
     3    16     2    1
     4     2     5    1
     5     2     3   am
     6     5     9   ar
     7     5     6   ar
     8     6     7   ar
     9     7     8   ar
    10     7    10    1
    11     8     9   ar
    12    10    15   ar
    13    10    11   ar
    14    11    12   ar
    15    12    13   ar
    16    13    14   ar
    17    14    15   ar
    18     3     4    2
    19     3     1    1
    20     1    19    1
    21    19    20    1
    22    20    21    2
    23    20    22    1
    24    22    23    2
    25    23    24    1
    26    24    28   ar
    27    24    25   ar
    28    25    26   ar
    29    26    27   ar
    30    26    29    1
    31    27    28   ar
    32    29    30    1
    33    30    35   ar
    34    30    31   ar
    35    31    32   ar
    36    32    33   ar
    37    33    34   ar
    38    34    35   ar
@<TRIPOS>MOLECULE
ZINC00699841
 37 40 0 0 0
SMALL
GASTEIGER

@<TRIPOS>ATOM
      1 C          26.5208   41.8750   25.7134 C.2     1  UNL1        0.2442
      2 O          27.7196   42.0218   25.8234 O.2     1  UNL1       -0.2733
      3 N          26.0256   40.7249   25.2148 N.am    1  UNL1       -0.2696
      4 C          25.5847   42.9786   26.1340 C.3     1  UNL1        0.1805
      5 N          26.0700   43.5834   27.3769 N.3     1  UNL1       -0.1476
      6 C          27.2667   45.2521   26.0485 C.3     1  UNL1        0.0192
      7 C          26.5638   44.9626   27.3763 C.3     1  UNL1        0.0802
      8 C          25.3878   45.9255   27.5513 C.3     1  UNL1        0.0192
      9 S          26.0606   42.7079   28.7825 S.O2    1  UNL1        0.0637
     10 O          27.3072   42.0288   28.8463 O.2     1  UNL1       -0.1528
     11 O          25.6197   43.5888   29.8067 O.2     1  UNL1       -0.1528
     12 C          24.8197   41.4681   28.6158 C.ar    1  UNL1        0.1222
     13 C          23.5105   41.8307   28.3599 C.ar    1  UNL1        0.0196
     14 C          22.5377   40.8578   28.2249 C.ar    1  UNL1       -0.0029
     15 C          22.8724   39.5229   28.3551 C.ar    1  UNL1       -0.0227
     16 C          24.1808   39.1606   28.6157 C.ar    1  UNL1       -0.0029
     17 C          25.1544   40.1333   28.7466 C.ar    1  UNL1        0.0196
     18 C          21.8112   38.4626   28.2125 C.3     1  UNL1        0.0189
     19 C          21.7457   37.9994   26.7557 C.3     1  UNL1        0.0044
     20 C          22.1549   37.2729   29.1110 C.3     1  UNL1        0.0044
     21 C          20.4555   39.0390   28.6258 C.3     1  UNL1        0.0044
     22 C          26.9356   39.6519   24.8060 C.3     1  UNL1        0.1206
     23 C          26.9389   38.5695   25.8544 C.ar    1  UNL1        0.0009
     24 C          26.0484   37.5161   25.7612 C.ar    1  UNL1        0.0007
     25 C          26.0514   36.5179   26.7174 C.ar    1  UNL1        0.0399
     26 C          26.9396   36.5773   27.7791 C.ar    1  UNL1        0.1764
     27 C          27.8330   37.6413   27.8760 C.ar    1  UNL1        0.1762
     28 C          27.8285   38.6350   26.9106 C.ar    1  UNL1        0.0376
     29 O          28.5932   37.4719   28.9970 O.3     1  UNL1       -0.4346
     30 C          27.8825   36.5128   29.8021 C.3     1  UNL1        0.4294
     31 O          27.1400   35.7414   28.8394 O.3     1  UNL1       -0.4346
     32 C          24.5775   40.5475   25.0818 C.3     1  UNL1        0.1269
     33 C          24.1908   40.6456   23.6285 C.ar    1  UNL1        0.0273
     34 C          23.3509   39.8577   22.9136 C.ar    1  UNL1        0.0044
     35 C          23.1405   40.1413   21.5772 C.ar    1  UNL1        0.0072
     36 C          23.7885   41.1927   21.0185 C.ar    1  UNL1        0.0352
     37 S          24.7260   41.8252   22.3999 S.2     1  UNL1       -0.0891
@<TRIPOS>BOND
     1     6     7    1
     2     7     8    1
     3     7     5    1
     4     5     4    1
     5     5     9    1
     6     4     1    1
     7     1     2    2
     8     1     3   am
     9     3    22    1
    10     3    32    1
    11    22    23    1
    12    23    28   ar
    13    23    24   ar
    14    24    25   ar
    15    25    26   ar
    16    26    31    1
    17    26    27   ar
    18    27    28   ar
    19    27    29    1
    20    29    30    1
    21    30    31    1
    22    32    33    1
    23    33    37   ar
    24    33    34   ar
    25    34    35   ar
    26    35    36   ar
    27    36    37   ar
    28     9    10    2
    29     9    11    2
    30     9    12    1
    31    12    17   ar
    32    12    13   ar
    33    13    14   ar
    34    14    15   ar
    35    15    16   ar
    36    15    18    1
    37    16    17   ar
    38    18    19    1
    39    18    20    1
    40    18    21    1
@<TRIPOS>MOLECULE
ZINC15319553
 34 37 0 0 0
SMALL
GASTEIGER

@<TRIPOS>ATOM
      1 C          22.8324   37.5945   28.2608 C.2     1  UNL1        0.0473
      2 C          23.9287   37.7331   29.0262 C.3     1  UNL1        0.1435
      3 C          25.2182   38.2421   28.4548 C.3     1  UNL1        0.0705
      4 C          24.9913   38.9338   27.1341 C.2     1  UNL1        0.0317
      5 C          23.8458   38.7457   26.4450 C.2     1  UNL1        0.0577
      6 N          22.8684   37.9211   26.9339 N.2     1  UNL1       -0.2579
      7 C          23.6120   39.4346   25.1235 C.3     1  UNL1        0.0514
      8 C          24.9464   39.6528   24.4118 C.3     1  UNL1        0.0523
      9 C          25.8561   40.4837   25.3230 C.3     1  UNL1        0.1650
     10 C          26.0032   39.7773   26.6431 C.2     1  UNL1        0.1812
     11 O          27.0150   39.9384   27.2964 O.2     1  UNL1       -0.2910
     12 C          24.7166   40.3898   23.1176 C.ar    1  UNL1        0.0083
     13 C          23.5489   40.7995   22.5643 C.ar    1  UNL1        0.0027
     14 C          23.5783   41.4669   21.3542 C.ar    1  UNL1        0.0072
     15 C          24.7740   41.6921   20.7566 C.ar    1  UNL1        0.0351
     16 S          25.9110   40.9440   21.9119 S.2     1  UNL1       -0.0908
     17 C          26.1524   37.0776   28.2494 C.ar    1  UNL1        0.0121
     18 C          26.1415   36.1362   27.2742 C.ar    1  UNL1        0.0030
     19 C          27.1091   35.1491   27.2844 C.ar    1  UNL1        0.0072
     20 C          28.0403   35.1518   28.2693 C.ar    1  UNL1        0.0351
     21 S          27.5654   36.5844   29.2228 S.2     1  UNL1       -0.0904
     22 C          25.2432   41.8427   25.5437 C.2     1  UNL1        0.3243
     23 O          25.4861   42.7464   24.7794 O.2     1  UNL1       -0.2496
     24 O          24.4273   42.0490   26.5894 O.3     1  UNL1       -0.4482
     25 C          24.7358   43.1737   27.4543 C.3     1  UNL1        0.2086
     26 C          25.1025   42.6598   28.8481 C.3     1  UNL1        0.0513
     27 C          23.8641   37.3956   30.3982 C.2     1  UNL1        0.3225
     28 O          23.5243   38.2312   31.2149 O.2     1  UNL1       -0.2497
     29 O          24.1791   36.1469   30.8015 O.3     1  UNL1       -0.4482
     30 C          24.9455   36.0267   32.0016 C.3     1  UNL1        0.2086
     31 C          25.6729   34.6807   32.0096 C.3     1  UNL1        0.0513
     32 C          21.5554   37.0755   28.8696 C.3     1  UNL1        0.0419
     33 C          20.1291   38.4783   30.3666 C.3     1  UNL1        0.0004
     34 C          20.5177   38.1991   28.9134 C.3     1  UNL1        0.0060
@<TRIPOS>BOND
     1    33    34    1
     2    34    32    1
     3    32     1    1
     4     1     6    2
     5     1     2    1
     6     2     3    1
     7     2    27    1
     8     3     4    1
     9     3    17    1
    10     4    10    1
    11     4     5    2
    12     5     7    1
    13     5     6    1
    14     7     8    1
    15     8     9    1
    16     8    12    1
    17     9    10    1
    18     9    22    1
    19    10    11    2
    20    22    23    2
    21    22    24    1
    22    24    25    1
    23    25    26    1
    24    12    16   ar
    25    12    13   ar
    26    13    14   ar
    27    14    15   ar
    28    15    16   ar
    29    17    21   ar
    30    17    18   ar
    31    18    19   ar
    32    19    20   ar
    33    20    21   ar
    34    27    28    2
    35    27    29    1
    36    29    30    1
    37    30    31    1
@<TRIPOS>MOLECULE
ZINC02672563
 35 38 0 0 0
SMALL
GASTEIGER

@<TRIPOS>ATOM
      1 C          22.2782   50.9436   22.7196 C.ar    1  UNL1        0.0392
      2 C          22.2912   50.8068   24.0955 C.ar    1  UNL1        0.1019
      3 N          21.0240   50.5989   24.5002 N.ar    1  UNL1       -0.2282
      4 N          20.1710   50.5979   23.3930 N.ar    1  UNL1       -0.1651
      5 C          20.8769   50.8071   22.3042 C.ar    1  UNL1        0.1028
      6 N          25.3339   49.0395   19.5324 N.am    1  UNL1       -0.2441
      7 C          25.0681   50.1788   20.1487 C.2     1  UNL1        0.2595
      8 O          25.7303   51.1814   19.9516 O.2     1  UNL1       -0.2690
      9 C          23.9311   50.1748   21.0864 C.2     1  UNL1        0.0850
     10 C          23.4338   51.1836   21.8490 C.2     1  UNL1        0.0142
     11 S          23.3863   48.4781   20.9454 S.3     1  UNL1       -0.0604
     12 C          24.5950   47.9323   19.7498 C.2     1  UNL1        0.1212
     13 S          24.7739   46.3799   19.0506 S.2     1  UNL1       -0.0272
     14 C          26.4524   48.9800   18.5880 C.3     1  UNL1        0.0995
     15 C          25.9904   49.4812   17.2182 C.3     1  UNL1        0.0219
     16 C          24.8177   48.0299   15.5567 C.3     1  UNL1        0.0001
     17 C          26.1721   48.3712   16.1810 C.3     1  UNL1        0.0018
     18 C          20.3570   50.8862   20.9189 C.ar    1  UNL1        0.0213
     19 C          20.0009   49.7219   20.2383 C.ar    1  UNL1        0.0048
     20 C          19.5134   49.7993   18.9511 C.ar    1  UNL1        0.0387
     21 C          19.3858   51.0341   18.3285 C.ar    1  UNL1        0.1608
     22 C          19.7442   52.1945   19.0010 C.ar    1  UNL1        0.1766
     23 C          20.2280   52.1244   20.2905 C.ar    1  UNL1        0.0288
     24 N          19.6066   53.5084   18.3334 N.pl3   1  UNL1        0.0607
     25 O          20.5156   53.9415   17.6480 O.2     1  UNL1       -0.1260
     26 O          18.5845   54.1566   18.4696 O.2     1  UNL1       -0.1260
     27 O          18.9095   51.1066   17.0580 O.3     1  UNL1       -0.4738
     28 C          19.5626   50.3028   16.0735 C.3     1  UNL1        0.2056
     29 C          20.9008   50.9428   15.6984 C.3     1  UNL1        0.0512
     30 C          20.6217   50.4118   25.8287 C.ar    1  UNL1        0.0828
     31 C          21.5499   50.0337   26.7900 C.ar    1  UNL1        0.0191
     32 C          21.1508   49.8537   28.0999 C.ar    1  UNL1        0.0015
     33 C          19.8269   50.0406   28.4528 C.ar    1  UNL1        0.0001
     34 C          18.8993   50.4124   27.4970 C.ar    1  UNL1        0.0015
     35 C          19.2928   50.5982   26.1863 C.ar    1  UNL1        0.0191
@<TRIPOS>BOND
     1    16    17    1
     2    17    15    1
     3    15    14    1
     4    14     6    1
     5     6    12    1
     6     6     7   am
     7     7     8    2
     8     7     9    1
     9     9    10    2
    10     9    11    1
    11    10     1    1
    12     1     5   ar
    13     1     2   ar
    14     2     3   ar
    15     3     4   ar
    16     3    30    1
    17     4     5   ar
    18     5    18    1
    19    18    23   ar
    20    18    19   ar
    21    19    20   ar
    22    20    21   ar
    23    21    22   ar
    24    21    27    1
    25    22    23   ar
    26    22    24    1
    27    24    25    2
    28    24    26    2
    29    27    28    1
    30    28    29    1
    31    30    35   ar
    32    30    31   ar
    33    31    32   ar
    34    32    33   ar
    35    33    34   ar
    36    34    35   ar
    37    11    12    1
    38    12    13    2
@<TRIPOS>MOLECULE
ZINC22820060
 34 36 0 0 0
SMALL
GASTEIGER

@<TRIPOS>ATOM
      1 N          26.0221   37.9830   28.3703 N.am    1  UNL1       -0.2508
      2 C          27.0594   37.3001   28.8938 C.2     1  UNL1        0.2531
      3 O          28.0772   37.8877   29.2101 O.2     1  UNL1       -0.2696
      4 C          26.1602   42.1393   28.1575 C.ar    1  UNL1        0.0757
      5 C          25.8466   41.5096   29.3659 C.ar    1  UNL1        0.0077
      6 C          25.8021   40.1357   29.4327 C.ar    1  UNL1        0.0151
      7 C          26.0683   39.3732   28.2992 C.ar    1  UNL1        0.0544
      8 C          26.3864   39.9967   27.0961 C.ar    1  UNL1        0.0151
      9 C          26.4276   41.3703   27.0209 C.ar    1  UNL1        0.0077
     10 C          26.2084   43.6111   28.0820 C.2     1  UNL1        0.3412
     11 O          27.1302   44.2158   28.5929 O.2     1  UNL1       -0.2449
     12 O          25.2301   44.2855   27.4464 O.3     1  UNL1       -0.4454
     13 C          23.1603   44.0728   28.7117 C.3     1  UNL1        0.0513
     14 C          24.2855   45.0131   28.2749 C.3     1  UNL1        0.2089
     15 C          26.9619   35.8520   29.0821 C.2     1  UNL1        0.0583
     16 C          27.5300   35.0161   28.1893 C.2     1  UNL1        0.0047
     17 C          27.3352   33.5625   28.3145 C.ar    1  UNL1        0.0018
     18 C          27.2590   32.9699   29.5791 C.ar    1  UNL1        0.0001
     19 C          27.0716   31.6084   29.6881 C.ar    1  UNL1        0.0017
     20 C          26.9694   30.8269   28.5502 C.ar    1  UNL1        0.0241
     21 C          27.0438   31.4058   27.2955 C.ar    1  UNL1        0.1429
     22 C          27.2257   32.7670   27.1698 C.ar    1  UNL1        0.0241
     23 N          26.9282   30.5616   26.0850 N.pl3   1  UNL1        0.0577
     24 O          26.4781   31.0317   25.0555 O.2     1  UNL1       -0.1261
     25 O          27.2832   29.3970   26.1186 O.2     1  UNL1       -0.1261
     26 C          24.8458   37.2630   27.8761 C.3     1  UNL1        0.1267
     27 C          23.5962   37.9236   28.3987 C.ar    1  UNL1        0.0192
     28 C          22.8570   38.7544   27.5760 C.ar    1  UNL1        0.0561
     29 C          21.7073   39.3573   28.0551 C.ar    1  UNL1        0.0112
     30 C          21.3028   39.1370   29.3584 C.ar    1  UNL1        0.0017
     31 C          22.0439   38.3110   30.1824 C.ar    1  UNL1        0.0112
     32 C          23.1910   37.7038   29.7030 C.ar    1  UNL1        0.0561
     33 CL         24.1220   36.6670   30.7383 Cl      1  UNL1       -0.0825
     34 CL         23.3686   39.0365   25.9413 Cl      1  UNL1       -0.0825
@<TRIPOS>BOND
     1    13    14    1
     2    14    12    1
     3    12    10    1
     4    10    11    2
     5    10     4    1
     6     4     9   ar
     7     4     5   ar
     8     5     6   ar
     9     6     7   ar
    10     7     8   ar
    11     7     1    1
    12     8     9   ar
    13     1    26    1
    14     1     2   am
    15    26    27    1
    16    27    32   ar
    17    27    28   ar
    18    28    29   ar
    19    28    34    1
    20    29    30   ar
    21    30    31   ar
    22    31    32   ar
    23    32    33    1
    24     2     3    2
    25     2    15    1
    26    15    16    2
    27    16    17    1
    28    17    22   ar
    29    17    18   ar
    30    18    19   ar
    31    19    20   ar
    32    20    21   ar
    33    21    22   ar
    34    21    23    1
    35    23    24    2
    36    23    25    2
@<TRIPOS>MOLECULE
ZINC13097392
 35 38 0 0 0
SMALL
GASTEIGER

@<TRIPOS>ATOM
      1 C          20.8785   37.8880   29.3459 C.2     1  UNL1        0.3289
      2 O          20.2846   36.8951   28.9978 O.2     1  UNL1       -0.2491
      3 O          22.2207   37.9032   29.3421 O.3     1  UNL1       -0.4393
      4 C          22.8731   38.1897   28.0769 C.3     1  UNL1        0.2766
      5 C          24.3248   38.5115   28.3218 C.2     1  UNL1        0.2171
      6 O          25.1403   37.6166   28.3950 O.2     1  UNL1       -0.2874
      7 C          26.4551   41.5183   29.0171 C.ar    1  UNL1        0.1727
      8 C          26.0596   40.2032   28.8780 C.ar    1  UNL1        0.0430
      9 C          24.7521   39.9085   28.4717 C.ar    1  UNL1        0.0417
     10 C          23.8553   40.9496   28.2035 C.ar    1  UNL1        0.0063
     11 C          24.2565   42.2583   28.3515 C.ar    1  UNL1        0.0403
     12 C          25.5538   42.5497   28.7540 C.ar    1  UNL1        0.1779
     13 C          28.7827   41.3989   28.5433 C.3     1  UNL1        0.2526
     14 O          27.7240   41.8083   29.4114 O.3     1  UNL1       -0.4684
     15 O          25.9454   43.8422   28.8921 O.3     1  UNL1       -0.4205
     16 C          24.9947   44.7520   29.4493 C.3     1  UNL1        0.5087
     17 F          25.2261   44.8851   30.8226 F       1  UNL1       -0.1550
     18 F          25.1257   46.0001   28.8311 F       1  UNL1       -0.1550
     19 C          20.1124   39.1094   29.7845 C.3     1  UNL1        0.1728
     20 S          19.3496   38.7967   31.3959 S.3     1  UNL1       -0.0829
     21 C          17.6476   38.8365   30.9416 C.ar    1  UNL1        0.1109
     22 C          16.6768   39.3650   31.8352 C.ar    1  UNL1        0.0479
     23 C          16.8491   39.9258   33.1712 C.ar    1  UNL1        0.0104
     24 C          15.7565   40.3660   33.8386 C.ar    1  UNL1        0.0370
     25 S          14.4212   40.0601   32.6980 S.2     1  UNL1       -0.0674
     26 C          15.3480   39.3461   31.3655 C.ar    1  UNL1        0.1144
     27 N          15.0465   38.8663   30.1740 N.ar    1  UNL1       -0.2173
     28 C          15.9916   38.3886   29.3879 C.ar    1  UNL1        0.1998
     29 N          17.2577   38.3749   29.7633 N.ar    1  UNL1       -0.2176
     30 C          18.1942   40.0064   33.7884 C.ar    1  UNL1        0.0006
     31 C          18.7556   38.8820   34.3924 C.ar    1  UNL1        0.0000
     32 C          20.0081   38.9633   34.9658 C.ar    1  UNL1        0.0000
     33 C          20.7065   40.1572   34.9423 C.ar    1  UNL1        0.0000
     34 C          20.1544   41.2762   34.3449 C.ar    1  UNL1        0.0000
     35 C          18.9027   41.2071   33.7682 C.ar    1  UNL1        0.0000
@<TRIPOS>BOND
     1    13    14    1
     2    14     7    1
     3     7    12   ar
     4     7     8   ar
     5     8     9   ar
     6     9    10   ar
     7     9     5    1
     8    10    11   ar
     9    11    12   ar
    10    12    15    1
    11    15    16    1
    12    16    17    1
    13    16    18    1
    14     5     6    2
    15     5     4    1
    16     4     3    1
    17     3     1    1
    18     1     2    2
    19     1    19    1
    20    19    20    1
    21    20    21    1
    22    21    29   ar
    23    21    22   ar
    24    22    26   ar
    25    22    23   ar
    26    23    24   ar
    27    23    30    1
    28    24    25   ar
    29    25    26   ar
    30    26    27   ar
    31    27    28   ar
    32    28    29   ar
    33    30    35   ar
    34    30    31   ar
    35    31    32   ar
    36    32    33   ar
    37    33    34   ar
    38    34    35   ar
@<TRIPOS>MOLECULE
ZINC06015603
 46 51 0 0 0
SMALL
GASTEIGER

@<TRIPOS>ATOM
      1 C          27.3129   43.5776   25.1476 C.3     1  UNL1        0.0478
      2 C          26.4857   42.5239   24.4574 C.2     1  UNL1        0.0477
      3 C          25.5436   41.8571   25.1461 C.3     1  UNL1        0.1431
      4 C          24.6971   40.8069   24.4915 C.3     1  UNL1        0.0673
      5 C          24.7530   40.9233   22.9890 C.2     1  UNL1        0.0308
      6 C          25.7357   41.6258   22.3895 C.2     1  UNL1        0.0576
      7 N          26.6984   42.2523   23.1347 N.2     1  UNL1       -0.2579
      8 C          25.7951   41.7536   20.8861 C.3     1  UNL1        0.0503
      9 C          25.2031   40.4995   20.2414 C.3     1  UNL1        0.0360
     10 C          23.7605   40.3347   20.7311 C.3     1  UNL1        0.0736
     11 C          23.7580   40.2773   22.2345 C.2     1  UNL1        0.1709
     12 O          22.8801   39.6622   22.8068 O.2     1  UNL1       -0.2916
     13 C          25.2153   40.6419   18.7412 C.ar    1  UNL1       -0.0185
     14 C          25.5663   41.8489   18.1658 C.ar    1  UNL1       -0.0009
     15 C          25.5791   41.9846   16.7901 C.ar    1  UNL1        0.0397
     16 C          25.2402   40.9092   15.9847 C.ar    1  UNL1        0.1724
     17 C          24.8876   39.6940   16.5639 C.ar    1  UNL1        0.1721
     18 C          24.8813   39.5635   17.9434 C.ar    1  UNL1        0.0358
     19 O          24.5541   38.6356   15.7777 O.3     1  UNL1       -0.4684
     20 C          23.1781   38.5052   15.4147 C.3     1  UNL1        0.2526
     21 O          25.2518   41.0410   14.6312 O.3     1  UNL1       -0.4684
     22 C          24.1937   41.8013   14.0443 C.3     1  UNL1        0.2526
     23 C          25.2022   39.4475   24.9014 C.ar    1  UNL1        0.0166
     24 C          26.5085   39.0856   24.6338 C.ar    1  UNL1       -0.0009
     25 C          26.9727   37.8391   25.0104 C.ar    1  UNL1       -0.0001
     26 C          26.1312   36.9512   25.6553 C.ar    1  UNL1        0.0031
     27 C          24.8242   37.3078   25.9243 C.ar    1  UNL1        0.0366
     28 C          24.3577   38.5605   25.5528 C.ar    1  UNL1        0.1353
     29 O          23.0739   38.9162   25.8221 O.3     1  UNL1       -0.4710
     30 C          22.2228   37.9077   26.3702 C.3     1  UNL1        0.2320
     31 C          21.6670   38.3815   27.6885 C.ar    1  UNL1        0.0212
     32 C          21.7059   39.7249   28.0121 C.ar    1  UNL1       -0.0007
     33 C          21.1919   40.1603   29.2192 C.ar    1  UNL1       -0.0002
     34 C          20.6478   39.2509   30.1069 C.ar    1  UNL1       -0.0000
     35 C          20.6139   37.9068   29.7857 C.ar    1  UNL1       -0.0002
     36 C          21.1234   37.4721   28.5764 C.ar    1  UNL1       -0.0007
     37 C          25.3404   42.1582   26.5132 C.2     1  UNL1        0.3228
     38 O          24.5654   43.0400   26.8333 O.2     1  UNL1       -0.2497
     39 O          26.0059   41.4676   27.4626 O.3     1  UNL1       -0.4432
     40 C          25.2363   40.9569   28.5528 C.3     1  UNL1        0.2350
     41 C          25.6736   39.5477   28.8597 C.ar    1  UNL1        0.0213
     42 C          26.9699   39.1519   28.5883 C.ar    1  UNL1       -0.0007
     43 C          27.3726   37.8607   28.8741 C.ar    1  UNL1       -0.0002
     44 C          26.4760   36.9625   29.4219 C.ar    1  UNL1       -0.0000
     45 C          25.1780   37.3566   29.6880 C.ar    1  UNL1       -0.0002
     46 C          24.7769   38.6494   29.4071 C.ar    1  UNL1       -0.0007
@<TRIPOS>BOND
     1     1     2    1
     2     2     7    2
     3     2     3    1
     4     3     4    1
     5     3    37    1
     6     4     5    1
     7     4    23    1
     8     5    11    1
     9     5     6    2
    10     6     8    1
    11     6     7    1
    12     8     9    1
    13     9    10    1
    14     9    13    1
    15    10    11    1
    16    11    12    2
    17    13    18   ar
    18    13    14   ar
    19    14    15   ar
    20    15    16   ar
    21    16    17   ar
    22    16    21    1
    23    17    18   ar
    24    17    19    1
    25    19    20    1
    26    21    22    1
    27    23    28   ar
    28    23    24   ar
    29    24    25   ar
    30    25    26   ar
    31    26    27   ar
    32    27    28   ar
    33    28    29    1
    34    29    30    1
    35    30    31    1
    36    31    36   ar
    37    31    32   ar
    38    32    33   ar
    39    33    34   ar
    40    34    35   ar
    41    35    36   ar
    42    37    38    2
    43    37    39    1
    44    39    40    1
    45    40    41    1
    46    41    46   ar
    47    41    42   ar
    48    42    43   ar
    49    43    44   ar
    50    44    45   ar
    51    45    46   ar
@<TRIPOS>MOLECULE
ZINC09293530
 36 40 0 0 0
SMALL
GASTEIGER

@<TRIPOS>ATOM
      1 N          21.8336   39.1232   29.4994 N.ar    1  UNL1       -0.2874
      2 C          21.9516   39.9098   28.3785 C.ar    1  UNL1        0.1195
      3 C          23.1026   39.6120   27.7395 C.ar    1  UNL1        0.1717
      4 C          23.7537   38.5616   28.5168 C.ar    1  UNL1        0.1050
      5 C          22.9182   38.2935   29.6064 C.ar    1  UNL1        0.1550
      6 N          23.2789   37.3514   30.4930 N.ar    1  UNL1       -0.2144
      7 C          24.3859   36.6793   30.3847 C.ar    1  UNL1        0.1268
      8 N          25.2667   36.8640   29.3622 N.ar    1  UNL1       -0.2784
      9 C          24.9971   37.8030   28.3898 C.ar    1  UNL1        0.1545
     10 N          25.9727   37.8144   27.5065 N.ar    1  UNL1       -0.2262
     11 C          26.9110   36.8999   27.8515 C.ar    1  UNL1        0.0990
     12 C          26.4772   36.2802   29.0378 C.ar    1  UNL1        0.0840
     13 C          27.2549   35.2908   29.6221 C.ar    1  UNL1        0.0191
     14 C          28.4477   34.9216   29.0356 C.ar    1  UNL1        0.0016
     15 C          28.8756   35.5326   27.8659 C.ar    1  UNL1        0.0016
     16 C          28.1244   36.5089   27.2752 C.ar    1  UNL1        0.0206
     17 C          18.6439   39.2435   32.1785 C.ar    1  UNL1        0.0757
     18 C          18.4726   38.6817   30.9098 C.ar    1  UNL1        0.0079
     19 C          19.5285   38.6439   30.0274 C.ar    1  UNL1        0.0178
     20 C          20.7649   39.1637   30.3968 C.ar    1  UNL1        0.0655
     21 C          20.9406   39.7187   31.6603 C.ar    1  UNL1        0.0178
     22 C          19.8877   39.7648   32.5461 C.ar    1  UNL1        0.0079
     23 C          17.5150   39.2863   33.1265 C.2     1  UNL1        0.3412
     24 O          17.7216   39.4709   34.3095 O.2     1  UNL1       -0.2449
     25 O          16.2542   39.1206   32.6807 O.3     1  UNL1       -0.4454
     26 C          15.4955   40.3232   32.3865 C.3     1  UNL1        0.2088
     27 C          14.9756   40.2594   30.9490 C.3     1  UNL1        0.0475
     28 C          15.1311   38.3824   29.3073 C.3     1  UNL1        0.0001
     29 C          14.5185   38.8335   30.6348 C.3     1  UNL1        0.0038
     30 C          24.7066   35.6459   31.4337 C.3     1  UNL1        0.0644
     31 C          25.2298   36.3416   32.6919 C.3     1  UNL1        0.0084
     32 O          23.5659   40.1802   26.5928 O.3     1  UNL1       -0.4224
     33 C          24.5196   41.1158   26.7186 C.2     1  UNL1        0.3215
     34 O          25.6085   40.9427   26.2152 O.2     1  UNL1       -0.2497
     35 C          24.2367   42.3817   27.4857 C.3     1  UNL1        0.1100
     36 C          25.2721   42.5447   28.6004 C.3     1  UNL1        0.0122
@<TRIPOS>BOND
     1    28    29    1
     2    29    27    1
     3    27    26    1
     4    26    25    1
     5    25    23    1
     6    23    24    2
     7    23    17    1
     8    17    22   ar
     9    17    18   ar
    10    18    19   ar
    11    19    20   ar
    12    20    21   ar
    13    20     1    1
    14    21    22   ar
    15     1     5   ar
    16     1     2   ar
    17     2     3   ar
    18     3     4   ar
    19     3    32    1
    20     4     9   ar
    21     4     5   ar
    22     5     6   ar
    23     6     7   ar
    24     7     8   ar
    25     7    30    1
    26     8    12   ar
    27     8     9   ar
    28     9    10   ar
    29    10    11   ar
    30    11    16   ar
    31    11    12   ar
    32    12    13   ar
    33    13    14   ar
    34    14    15   ar
    35    15    16   ar
    36    30    31    1
    37    32    33    1
    38    33    34    2
    39    33    35    1
    40    35    36    1
@<TRIPOS>MOLECULE
ZINC03150581
 30 32 0 0 0
SMALL
GASTEIGER

@<TRIPOS>ATOM
      1 C          22.9263   39.7604   27.8651 C.ar    1  UNL1        0.1269
      2 C          21.7093   40.2509   28.3974 C.ar    1  UNL1        0.0061
      3 N          21.5984   41.5140   28.7520 N.ar    1  UNL1       -0.2647
      4 C          22.6445   42.3411   28.6081 C.ar    1  UNL1        0.0969
      5 C          22.5509   43.6920   28.9793 C.ar    1  UNL1        0.0206
      6 C          23.6273   44.5121   28.8239 C.ar    1  UNL1        0.0016
      7 C          24.8240   44.0297   28.3007 C.ar    1  UNL1        0.0016
      8 C          24.9499   42.7250   27.9301 C.ar    1  UNL1        0.0207
      9 C          23.8607   41.8509   28.0759 C.ar    1  UNL1        0.1002
     10 N          23.9623   40.5605   27.7235 N.ar    1  UNL1       -0.2295
     11 N          23.0294   38.4276   27.4956 N.pl3   1  UNL1       -0.2935
     12 C          22.6197   38.2354   26.0981 C.3     1  UNL1        0.0921
     13 C          23.8463   38.3342   25.1889 C.3     1  UNL1        0.0215
     14 C          24.9016   40.4154   24.2959 C.3     1  UNL1        0.0001
     15 C          23.6719   39.5080   24.2230 C.3     1  UNL1        0.0018
     16 C          24.3908   37.9231   27.7192 C.3     1  UNL1        0.0921
     17 C          24.4968   37.3513   29.1344 C.3     1  UNL1        0.0215
     18 C          25.7407   37.9183   29.8216 C.3     1  UNL1        0.0018
     19 C          26.3089   36.8769   30.7878 C.3     1  UNL1        0.0001
     20 N          20.6279   39.3956   28.5467 N.pl3   1  UNL1       -0.5183
     21 S          20.6105   38.2903   29.7797 S.O2    1  UNL1       -0.0568
     22 O          20.2225   37.0491   29.2071 O.2     1  UNL1       -0.1841
     23 O          21.8310   38.4537   30.4888 O.2     1  UNL1       -0.1841
     24 C          19.3200   38.7612   30.8832 C.ar    1  UNL1        0.0894
     25 C          17.9986   38.6087   30.5064 C.ar    1  UNL1        0.0174
     26 C          16.9860   38.9734   31.3736 C.ar    1  UNL1        0.0080
     27 C          17.2949   39.5009   32.6144 C.ar    1  UNL1        0.0346
     28 C          18.6172   39.6583   32.9889 C.ar    1  UNL1        0.0080
     29 C          19.6292   39.2884   32.1231 C.ar    1  UNL1        0.0174
     30 BR         15.9100   40.0063   33.7986 Br      1  UNL1       -0.0490
@<TRIPOS>UNITY_ATOM_ATTR
20 1
charge -1
@<TRIPOS>BOND
     1    14    15    1
     2    15    13    1
     3    13    12    1
     4    12    11    1
     5    11    16    1
     6    11     1    1
     7    16    17    1
     8    17    18    1
     9    18    19    1
    10     1    10   ar
    11     1     2   ar
    12     2     3   ar
    13     2    20    1
    14     3     4   ar
    15     4     9   ar
    16     4     5   ar
    17     5     6   ar
    18     6     7   ar
    19     7     8   ar
    20     8     9   ar
    21     9    10   ar
    22    20    21    1
    23    21    22    2
    24    21    23    2
    25    21    24    1
    26    24    29   ar
    27    24    25   ar
    28    25    26   ar
    29    26    27   ar
    30    27    28   ar
    31    27    30    1
    32    28    29   ar
@<TRIPOS>MOLECULE
ZINC03784127
 34 36 0 0 0
SMALL
GASTEIGER

@<TRIPOS>ATOM
      1 C          24.2524   37.9495   27.5725 C.ar    1  UNL1       -0.0025
      2 C          23.9328   37.7073   26.2478 C.ar    1  UNL1       -0.0026
      3 C          22.6110   37.6945   25.8390 C.ar    1  UNL1       -0.0003
      4 C          21.6012   37.9181   26.7515 C.ar    1  UNL1       -0.0000
      5 C          21.9163   38.1682   28.0898 C.ar    1  UNL1       -0.0002
      6 C          23.2539   38.1796   28.4953 C.ar    1  UNL1       -0.0026
      7 C          20.8436   38.4127   29.0698 C.2     1  UNL1        0.0015
      8 C          21.1520   38.7558   30.3320 C.2     1  UNL1        0.0191
      9 C          20.0802   39.0060   31.3095 C.ar    1  UNL1        0.0813
     10 C          20.4201   39.3663   32.6269 C.ar    1  UNL1        0.0191
     11 C          19.4370   39.6003   33.5399 C.ar    1  UNL1        0.0030
     12 C          18.0950   39.4712   33.1269 C.ar    1  UNL1        0.0178
     13 C          17.0352   39.6978   34.0184 C.ar    1  UNL1        0.0024
     14 C          15.7505   39.5640   33.5867 C.ar    1  UNL1        0.0115
     15 C          15.4725   39.2038   32.2685 C.ar    1  UNL1        0.0592
     16 C          16.4766   38.9767   31.3765 C.ar    1  UNL1        0.0305
     17 C          17.8160   39.1052   31.7859 C.ar    1  UNL1        0.0821
     18 N          18.8185   38.8925   30.9297 N.ar    1  UNL1       -0.2453
     19 CL         13.8216   39.0427   31.7565 Cl      1  UNL1       -0.0822
     20 C          25.6953   37.9613   28.0075 C.3     1  UNL1        0.1170
     21 S          26.0088   39.4321   29.0219 S.3     1  UNL1       -0.1251
     22 C          25.7456   40.8169   27.8802 C.3     1  UNL1        0.0683
     23 C          24.5792   41.6732   28.3773 C.3     1  UNL1        0.0969
     24 C          24.2457   45.4790   28.1334 C.3     1  UNL1        0.1149
     25 N          23.9422   44.0633   28.3568 N.am    1  UNL1       -0.2760
     26 C          22.6071   43.6626   28.8076 C.3     1  UNL1        0.1149
     27 C          24.8913   43.1295   28.1476 C.2     1  UNL1        0.2266
     28 O          25.9966   43.4612   27.7745 O.2     1  UNL1       -0.2748
     29 S          26.0461   36.4704   28.9794 S.3     1  UNL1       -0.1253
     30 C          25.8322   37.0072   30.6991 C.3     1  UNL1        0.0646
     31 C          24.6964   36.2107   31.3445 C.3     1  UNL1        0.0534
     32 C          25.2746   35.1684   32.2664 C.2     1  UNL1        0.0512
     33 O          25.9102   34.2464   31.8129 O.co2   1  UNL1       -0.5491
     34 O          25.0835   35.2643   33.5916 O.co2   1  UNL1       -0.5491
@<TRIPOS>UNITY_ATOM_ATTR
34 1
charge -1
@<TRIPOS>BOND
     1    24    25    1
     2    25    26    1
     3    25    27   am
     4    27    28    2
     5    27    23    1
     6    23    22    1
     7    22    21    1
     8    21    20    1
     9    20     1    1
    10    20    29    1
    11     1     6   ar
    12     1     2   ar
    13     2     3   ar
    14     3     4   ar
    15     4     5   ar
    16     5     6   ar
    17     5     7    1
    18     7     8    2
    19     8     9    1
    20     9    18   ar
    21     9    10   ar
    22    10    11   ar
    23    11    12   ar
    24    12    17   ar
    25    12    13   ar
    26    13    14   ar
    27    14    15   ar
    28    15    16   ar
    29    15    19    1
    30    16    17   ar
    31    17    18   ar
    32    29    30    1
    33    30    31    1
    34    31    32    1
    35    32    33   ar
    36    32    34   ar
@<TRIPOS>MOLECULE
ZINC12858745
 36 38 0 0 0
SMALL
GASTEIGER

@<TRIPOS>ATOM
      1 C          23.4715   38.7699   28.8790 C.3     1  UNL1        0.1139
      2 C          24.5339   37.7056   28.9786 C.ar    1  UNL1        0.0795
      3 C          24.7504   37.0662   30.1862 C.ar    1  UNL1        0.0719
      4 C          25.7346   36.0918   30.2677 C.ar    1  UNL1        0.0180
      5 C          26.4592   35.7889   29.1249 C.ar    1  UNL1        0.0913
      6 C          26.1827   36.4664   27.9526 C.ar    1  UNL1        0.1024
      7 N          25.2431   37.3909   27.9126 N.ar    1  UNL1       -0.2466
      8 CL         23.8068   37.4818   31.5828 Cl      1  UNL1       -0.0810
      9 C          27.5351   34.7344   29.1610 C.3     1  UNL1        0.4200
     10 F          26.9585   33.4890   29.4325 F       1  UNL1       -0.1658
     11 F          28.1841   34.6878   27.9226 F       1  UNL1       -0.1658
     12 F          28.4615   35.0474   30.1616 F       1  UNL1       -0.1658
     13 C          25.2971   42.1920   27.2962 C.ar    1  UNL1        0.1513
     14 C          24.3847   41.5942   26.4914 C.ar    1  UNL1        0.0268
     15 C          23.7371   40.4586   26.9402 C.ar    1  UNL1        0.0048
     16 C          24.0335   39.9760   28.1717 C.ar    1  UNL1        0.0197
     17 S          25.2569   41.1448   28.7414 S.2     1  UNL1       -0.0709
     18 S          26.2663   43.6325   26.9961 S.O2    1  UNL1        0.0690
     19 O          27.3950   43.5489   27.8554 O.2     1  UNL1       -0.1523
     20 O          26.3900   43.7523   25.5856 O.2     1  UNL1       -0.1523
     21 N          25.3791   44.9345   27.5057 N.3     1  UNL1       -0.1551
     22 C          24.5583   47.2366   27.4164 C.3     1  UNL1        0.0206
     23 C          25.6428   46.2638   26.9493 C.3     1  UNL1        0.0959
     24 C          24.3303   44.7570   28.5131 C.3     1  UNL1        0.0959
     25 C          24.9592   44.7488   29.9079 C.3     1  UNL1        0.0206
     26 C          22.2957   38.2349   28.1029 C.2     1  UNL1        0.1241
     27 N          21.1193   38.2931   28.6028 N.2     1  UNL1       -0.0850
     28 O          20.9222   38.8601   29.8852 O.2     1  UNL1       -0.3726
     29 C          19.7419   38.4023   30.5479 C.3     1  UNL1        0.2651
     30 C          19.5807   39.1388   31.8528 C.ar    1  UNL1        0.0241
     31 C          20.6922   39.4437   32.6160 C.ar    1  UNL1        0.0003
     32 C          20.5455   40.1241   33.8102 C.ar    1  UNL1        0.0112
     33 C          19.2848   40.4902   34.2470 C.ar    1  UNL1        0.0577
     34 C          18.1722   40.1798   33.4854 C.ar    1  UNL1        0.0112
     35 C          18.3207   39.5044   32.2888 C.ar    1  UNL1        0.0003
     36 CL         19.0992   41.3391   35.7499 Cl      1  UNL1       -0.0822
@<TRIPOS>BOND
     1    22    23    1
     2    23    21    1
     3    21    24    1
     4    21    18    1
     5    24    25    1
     6    18    19    2
     7    18    20    2
     8    18    13    1
     9    13    17   ar
    10    13    14   ar
    11    14    15   ar
    12    15    16   ar
    13    16    17   ar
    14    16     1    1
    15     1    26    1
    16     1     2    1
    17    26    27    2
    18    27    28    1
    19    28    29    1
    20    29    30    1
    21    30    35   ar
    22    30    31   ar
    23    31    32   ar
    24    32    33   ar
    25    33    34   ar
    26    33    36    1
    27    34    35   ar
    28     2     7   ar
    29     2     3   ar
    30     3     4   ar
    31     3     8    1
    32     4     5   ar
    33     5     6   ar
    34     5     9    1
    35     6     7   ar
    36     9    10    1
    37     9    11    1
    38     9    12    1
@<TRIPOS>MOLECULE
ZINC19645807
 35 38 0 0 0
SMALL
GASTEIGER

@<TRIPOS>ATOM
      1 N          26.3613   39.8479   27.4525 N.ar    1  UNL1       -0.2739
      2 C          26.7036   39.7335   28.7593 C.ar    1  UNL1        0.1815
      3 N          25.9014   39.1974   29.6385 N.ar    1  UNL1       -0.2186
      4 C          24.7054   38.7348   29.2980 C.ar    1  UNL1        0.1169
      5 C          24.2332   38.7964   27.9667 C.ar    1  UNL1        0.0768
      6 C          25.1681   39.4158   26.9996 C.ar    1  UNL1        0.2639
      7 O          24.8680   39.5279   25.8244 O.2     1  UNL1       -0.2669
      8 C          22.9572   38.2732   27.7491 C.ar    1  UNL1       -0.0030
      9 C          22.2521   37.7465   28.7926 C.ar    1  UNL1        0.1027
     10 S          23.3667   37.9613   30.1700 S.2     1  UNL1       -0.0617
     11 C          22.3601   38.2892   26.3656 C.3     1  UNL1        0.0320
     12 C          20.9138   37.1521   28.7839 C.2     1  UNL1        0.3470
     13 O          20.5300   36.5321   27.8104 O.2     1  UNL1       -0.2443
     14 O          20.1065   37.2923   29.8556 O.3     1  UNL1       -0.4447
     15 C          19.9042   38.6400   30.3567 C.3     1  UNL1        0.2134
     16 C          18.7016   38.6573   31.3025 C.3     1  UNL1        0.0738
     17 C          19.0467   39.4456   32.5396 C.ar    1  UNL1       -0.0184
     18 C          18.0968   40.2599   33.1276 C.ar    1  UNL1       -0.0041
     19 C          18.4119   40.9793   34.2652 C.ar    1  UNL1       -0.0003
     20 C          19.6797   40.8921   34.8091 C.ar    1  UNL1       -0.0000
     21 C          20.6313   40.0822   34.2179 C.ar    1  UNL1       -0.0003
     22 C          20.3146   39.3587   33.0832 C.ar    1  UNL1       -0.0041
     23 C          27.3059   40.4595   26.5145 C.3     1  UNL1        0.1373
     24 C          26.0714   43.9427   27.3307 C.ar    1  UNL1        0.0754
     25 C          27.1263   44.7239   26.8545 C.ar    1  UNL1        0.0064
     26 C          28.2264   44.1178   26.2845 C.ar    1  UNL1       -0.0001
     27 C          28.2812   42.7393   26.1740 C.ar    1  UNL1       -0.0024
     28 C          27.2372   41.9598   26.6391 C.ar    1  UNL1        0.0007
     29 C          26.1332   42.5527   27.2162 C.ar    1  UNL1        0.0040
     30 C          24.8925   44.5847   27.9476 C.2     1  UNL1        0.3412
     31 O          25.0392   45.3855   28.8491 O.2     1  UNL1       -0.2449
     32 O          23.6548   44.2819   27.5104 O.3     1  UNL1       -0.4454
     33 C          22.7466   43.6777   28.4688 C.3     1  UNL1        0.2088
     34 C          21.5648   41.4776   28.5406 C.3     1  UNL1        0.0040
     35 C          22.9323   42.1590   28.4601 C.3     1  UNL1        0.0475
@<TRIPOS>BOND
     1    34    35    1
     2    35    33    1
     3    33    32    1
     4    32    30    1
     5    30    31    2
     6    30    24    1
     7    24    29   ar
     8    24    25   ar
     9    25    26   ar
    10    26    27   ar
    11    27    28   ar
    12    28    29   ar
    13    28    23    1
    14    23     1    1
    15     1     6   ar
    16     1     2   ar
    17     2     3   ar
    18     3     4   ar
    19     4    10   ar
    20     4     5   ar
    21     5     6   ar
    22     5     8   ar
    23     6     7    2
    24     8     9   ar
    25     8    11    1
    26     9    10   ar
    27     9    12    1
    28    12    13    2
    29    12    14    1
    30    14    15    1
    31    15    16    1
    32    16    17    1
    33    17    22   ar
    34    17    18   ar
    35    18    19   ar
    36    19    20   ar
    37    20    21   ar
    38    21    22   ar
@<TRIPOS>MOLECULE
ZINC03216540
 40 44 0 0 0
SMALL
GASTEIGER

@<TRIPOS>ATOM
      1 C          26.5000   37.1274   27.3687 C.3     1  UNL1        0.1317
      2 C          27.4933   36.0393   27.7814 C.3     1  UNL1        0.1125
      3 C          27.2692   34.8101   26.9371 C.ar    1  UNL1       -0.0095
      4 C          27.1748   34.9770   25.5620 C.ar    1  UNL1       -0.0032
      5 C          26.9807   33.8893   24.7361 C.ar    1  UNL1       -0.0003
      6 C          26.8801   32.6231   25.2825 C.ar    1  UNL1       -0.0003
      7 C          26.9694   32.4565   26.6485 C.ar    1  UNL1       -0.0045
      8 C          27.1598   33.5512   27.4833 C.ar    1  UNL1       -0.0234
      9 C          27.2223   33.2957   28.9662 C.3     1  UNL1        0.0452
     10 C          27.9018   34.4624   29.6918 C.3     1  UNL1        0.1008
     11 N          27.2953   35.7094   29.1969 N.3     1  UNL1       -0.1519
     12 S          26.4303   36.7033   30.1999 S.O2    1  UNL1        0.0636
     13 O          25.0613   36.5320   29.8595 O.2     1  UNL1       -0.1528
     14 O          27.0708   37.9714   30.1664 O.2     1  UNL1       -0.1528
     15 C          26.6229   36.0851   31.8386 C.ar    1  UNL1        0.1222
     16 C          27.8270   36.2417   32.4994 C.ar    1  UNL1        0.0196
     17 C          27.9768   35.7602   33.7865 C.ar    1  UNL1       -0.0029
     18 C          26.9252   35.1146   34.4096 C.ar    1  UNL1       -0.0218
     19 C          25.7229   34.9533   33.7469 C.ar    1  UNL1       -0.0029
     20 C          25.5718   35.4383   32.4613 C.ar    1  UNL1        0.0196
     21 C          27.0896   34.5862   35.8114 C.3     1  UNL1        0.0310
     22 C          27.2468   38.2810   26.7504 C.2     1  UNL1        0.3192
     23 O          26.9915   38.6309   25.6225 O.2     1  UNL1       -0.2500
     24 O          28.1957   38.9199   27.4527 O.3     1  UNL1       -0.4383
     25 C          28.5068   40.2810   27.0540 C.3     1  UNL1        0.2929
     26 N          26.8060   42.0771   27.0660 N.am    1  UNL1       -0.2556
     27 C          27.5888   41.2369   27.7715 C.2     1  UNL1        0.2740
     28 O          27.5545   41.2500   28.9838 O.2     1  UNL1       -0.2705
     29 C          25.9556   42.9626   27.7307 C.ar    1  UNL1        0.0539
     30 C          26.4083   44.2071   28.1124 C.ar    1  UNL1        0.0149
     31 C          25.5690   45.0970   28.7758 C.ar    1  UNL1        0.0013
     32 C          24.2806   44.7649   29.0660 C.ar    1  UNL1        0.0001
     33 C          23.7799   43.5059   28.6937 C.ar    1  UNL1        0.0012
     34 C          24.6231   42.5937   28.0125 C.ar    1  UNL1        0.0137
     35 C          24.1232   41.3340   27.6467 C.ar    1  UNL1        0.0012
     36 C          22.8341   41.0092   27.9403 C.ar    1  UNL1        0.0000
     37 C          22.0022   41.9077   28.6057 C.ar    1  UNL1        0.0000
     38 C          22.4544   43.1355   28.9803 C.ar    1  UNL1        0.0000
     39 C          27.8601   43.0970   25.1089 C.3     1  UNL1        0.0237
     40 C          26.8475   42.0612   25.6017 C.3     1  UNL1        0.0984
@<TRIPOS>BOND
     1    39    40    1
     2    40    26    1
     3    26    29    1
     4    26    27   am
     5    29    34   ar
     6    29    30   ar
     7    30    31   ar
     8    31    32   ar
     9    32    33   ar
    10    33    38   ar
    11    33    34   ar
    12    34    35   ar
    13    35    36   ar
    14    36    37   ar
    15    37    38   ar
    16    27    28    2
    17    27    25    1
    18    25    24    1
    19    24    22    1
    20    22    23    2
    21    22     1    1
    22     1     2    1
    23     2    11    1
    24     2     3    1
    25     3     8   ar
    26     3     4   ar
    27     4     5   ar
    28     5     6   ar
    29     6     7   ar
    30     7     8   ar
    31     8     9    1
    32     9    10    1
    33    10    11    1
    34    11    12    1
    35    12    13    2
    36    12    14    2
    37    12    15    1
    38    15    20   ar
    39    15    16   ar
    40    16    17   ar
    41    17    18   ar
    42    18    19   ar
    43    18    21    1
    44    19    20   ar
@<TRIPOS>MOLECULE
ZINC19740207
 36 39 0 0 0
SMALL
GASTEIGER

@<TRIPOS>ATOM
      1 N          24.3176   39.6533   28.1194 N.3     1  UNL1       -0.1465
      2 S          25.2060   38.3266   27.6796 S.O2    1  UNL1        0.0646
      3 O          26.5256   38.7878   27.4248 O.2     1  UNL1       -0.1527
      4 O          24.4408   37.6303   26.7054 O.2     1  UNL1       -0.1527
      5 C          26.1799   36.1999   29.1315 C.ar    1  UNL1        0.1237
      6 C          25.3037   37.2743   29.0895 C.ar    1  UNL1        0.1349
      7 C          24.5166   37.4821   30.1941 C.ar    1  UNL1        0.0276
      8 C          24.6296   36.6425   31.2570 C.ar    1  UNL1        0.0371
      9 S          25.8503   35.5215   30.7484 S.2     1  UNL1       -0.0787
     10 C          27.1275   35.7415   28.1142 C.2     1  UNL1        0.3487
     11 O          26.7222   35.3666   27.0304 O.2     1  UNL1       -0.2443
     12 C          29.0325   36.9752   28.8596 C.3     1  UNL1        0.2560
     13 O          28.4502   35.7350   28.3787 O.3     1  UNL1       -0.4410
     14 C          22.9747   39.8510   27.5684 C.3     1  UNL1        0.1225
     15 C          21.9476   39.3932   28.5716 C.ar    1  UNL1       -0.0043
     16 C          21.4654   40.2780   29.5184 C.ar    1  UNL1        0.0002
     17 C          20.5196   39.8625   30.4356 C.ar    1  UNL1        0.0366
     18 C          20.0617   38.5531   30.4129 C.ar    1  UNL1        0.1384
     19 C          20.5513   37.6657   29.4657 C.ar    1  UNL1        0.0366
     20 C          21.4932   38.0876   28.5474 C.ar    1  UNL1        0.0002
     21 O          19.1354   38.1403   31.3177 O.3     1  UNL1       -0.4792
     22 C          19.0420   38.8826   32.5352 C.3     1  UNL1        0.1659
     23 C          19.5413   38.0214   33.6973 C.3     1  UNL1        0.0435
     24 C          19.8190   38.9124   34.9095 C.3     1  UNL1        0.0037
     25 C          20.5631   40.1708   34.4588 C.3     1  UNL1        0.0001
     26 C          19.6621   41.3925   34.6510 C.3     1  UNL1        0.0000
     27 C          18.6063   41.4253   33.5440 C.3     1  UNL1        0.0001
     28 C          17.5265   40.3821   33.8376 C.3     1  UNL1        0.0037
     29 C          17.5841   39.2762   32.7819 C.3     1  UNL1        0.0435
     30 C          24.8747   40.6289   29.0596 C.3     1  UNL1        0.1240
     31 C          24.7722   42.0114   28.4684 C.ar    1  UNL1        0.0147
     32 C          23.8518   42.9214   28.9663 C.ar    1  UNL1        0.0003
     33 C          23.7960   44.1831   28.3944 C.ar    1  UNL1        0.0204
     34 C          24.6466   44.4866   27.3481 C.ar    1  UNL1        0.0989
     35 N          25.5061   43.5942   26.8970 N.ar    1  UNL1       -0.2426
     36 C          25.5900   42.3862   27.4196 C.ar    1  UNL1        0.0960
@<TRIPOS>BOND
     1    12    13    1
     2    13    10    1
     3    10    11    2
     4    10     5    1
     5     5     9   ar
     6     5     6   ar
     7     6     7   ar
     8     6     2    1
     9     7     8   ar
    10     8     9   ar
    11     2     3    2
    12     2     4    2
    13     2     1    1
    14     1    14    1
    15     1    30    1
    16    14    15    1
    17    15    20   ar
    18    15    16   ar
    19    16    17   ar
    20    17    18   ar
    21    18    19   ar
    22    18    21    1
    23    19    20   ar
    24    21    22    1
    25    22    29    1
    26    22    23    1
    27    23    24    1
    28    24    25    1
    29    25    26    1
    30    26    27    1
    31    27    28    1
    32    28    29    1
    33    30    31    1
    34    31    36   ar
    35    31    32   ar
    36    32    33   ar
    37    33    34   ar
    38    34    35   ar
    39    35    36   ar
@<TRIPOS>MOLECULE
ZINC23990616
 37 40 0 0 0
SMALL
GASTEIGER

@<TRIPOS>ATOM
      1 C          22.7619   38.7141   29.6227 C.ar    1  UNL1        0.0040
      2 C          23.5629   37.8014   30.3221 C.ar    1  UNL1        0.0034
      3 C          24.8017   37.4559   29.8302 C.ar    1  UNL1        0.0408
      4 C          25.2653   38.0178   28.6474 C.ar    1  UNL1        0.1824
      5 C          24.4767   38.9310   27.9478 C.ar    1  UNL1        0.1731
      6 C          23.2307   39.2799   28.4298 C.ar    1  UNL1        0.0401
      7 C          20.3449   38.3392   29.8022 C.2     1  UNL1        0.1025
      8 C          21.4400   39.0803   30.1408 C.2     1  UNL1        0.0134
      9 C          19.9311   39.1895   32.7423 C.3     1  UNL1        0.1320
     10 N          18.8731   38.9858   31.7497 N.ar    1  UNL1       -0.3089
     11 C          17.5155   39.1434   31.9538 C.ar    1  UNL1        0.0789
     12 C          16.7423   39.5093   33.0465 C.ar    1  UNL1        0.0188
     13 C          15.3702   39.5748   32.9222 C.ar    1  UNL1        0.0016
     14 C          14.7584   39.2772   31.7127 C.ar    1  UNL1        0.0016
     15 C          15.5024   38.9155   30.6257 C.ar    1  UNL1        0.0206
     16 C          16.8958   38.8423   30.7278 C.ar    1  UNL1        0.0987
     17 N          17.8773   38.5220   29.8503 N.ar    1  UNL1       -0.2261
     18 C          19.0450   38.6092   30.4434 C.ar    1  UNL1        0.1535
     19 C          20.4585   37.2996   28.8240 C.1     1  UNL1        0.1035
     20 N          20.5487   36.4748   28.0480 N.1     1  UNL1       -0.1907
     21 O          24.9354   39.4784   26.7907 O.3     1  UNL1       -0.4683
     22 C          24.2133   39.1708   25.5966 C.3     1  UNL1        0.2526
     23 O          26.4907   37.6770   28.1708 O.3     1  UNL1       -0.4179
     24 C          27.2981   36.9844   28.9983 C.2     1  UNL1        0.3460
     25 O          28.0718   37.5742   29.7265 O.2     1  UNL1       -0.2445
     26 C          27.2427   35.5110   29.0201 C.ar    1  UNL1        0.0823
     27 C          27.0797   34.7988   27.8285 C.ar    1  UNL1        0.0467
     28 C          27.0336   33.4177   27.8513 C.ar    1  UNL1        0.1757
     29 C          27.1380   32.7362   29.0611 C.ar    1  UNL1        0.2061
     30 C          27.2952   33.4433   30.2503 C.ar    1  UNL1        0.1757
     31 C          27.3473   34.8243   30.2328 C.ar    1  UNL1        0.0467
     32 O          27.3969   32.7744   31.4301 O.3     1  UNL1       -0.4683
     33 C          27.4021   33.5608   32.6233 C.3     1  UNL1        0.2526
     34 O          27.0871   31.3784   29.0811 O.3     1  UNL1       -0.4654
     35 C          28.3281   30.6808   28.9566 C.3     1  UNL1        0.2528
     36 O          26.8802   32.7239   26.6917 O.3     1  UNL1       -0.4683
     37 C          27.1531   33.4237   25.4760 C.3     1  UNL1        0.2526
@<TRIPOS>BOND
     1     9    10    1
     2    10    18   ar
     3    10    11   ar
     4    11    16   ar
     5    11    12   ar
     6    12    13   ar
     7    13    14   ar
     8    14    15   ar
     9    15    16   ar
    10    16    17   ar
    11    17    18   ar
    12    18     7    1
    13     7     8    2
    14     7    19    1
    15     8     1    1
    16     1     6   ar
    17     1     2   ar
    18     2     3   ar
    19     3     4   ar
    20     4     5   ar
    21     4    23    1
    22     5     6   ar
    23     5    21    1
    24    21    22    1
    25    23    24    1
    26    24    25    2
    27    24    26    1
    28    26    31   ar
    29    26    27   ar
    30    27    28   ar
    31    28    29   ar
    32    28    36    1
    33    29    30   ar
    34    29    34    1
    35    30    31   ar
    36    30    32    1
    37    32    33    1
    38    34    35    1
    39    36    37    1
    40    19    20    3
@<TRIPOS>MOLECULE
ZINC08899576
 39 43 0 0 0
SMALL
GASTEIGER

@<TRIPOS>ATOM
      1 C          26.8235   35.5267   27.0149 C.ar    1  UNL1        0.1345
      2 C          26.8398   35.3804   28.4129 C.ar    1  UNL1        0.0303
      3 C          26.1428   36.3487   29.1861 C.ar    1  UNL1        0.1013
      4 N          25.5137   37.3356   28.5947 N.ar    1  UNL1       -0.1664
      5 N          25.4883   37.4845   27.3218 N.ar    1  UNL1       -0.2085
      6 C          26.1138   36.6382   26.4834 C.ar    1  UNL1        0.2830
      7 O          26.0685   36.8200   25.2788 O.2     1  UNL1       -0.2653
      8 C          26.1268   36.2423   30.6650 C.ar    1  UNL1        0.0193
      9 C          27.2457   36.6198   31.4057 C.ar    1  UNL1        0.0016
     10 C          27.2232   36.5235   32.7823 C.ar    1  UNL1        0.0000
     11 C          26.0973   36.0425   33.4262 C.ar    1  UNL1        0.0000
     12 C          24.9859   35.6615   32.6960 C.ar    1  UNL1        0.0000
     13 C          24.9949   35.7588   31.3194 C.ar    1  UNL1        0.0016
     14 C          27.5565   34.2597   29.0561 C.ar    1  UNL1        0.0019
     15 C          28.9378   34.3297   29.2507 C.ar    1  UNL1        0.0001
     16 C          29.5996   33.2819   29.8561 C.ar    1  UNL1        0.0000
     17 C          28.9000   32.1587   30.2608 C.ar    1  UNL1        0.0000
     18 C          27.5320   32.0804   30.0664 C.ar    1  UNL1        0.0000
     19 C          26.8566   33.1230   29.4672 C.ar    1  UNL1        0.0001
     20 C          27.5174   34.5729   26.1384 C.2     1  UNL1        0.3460
     21 O          28.6691   34.7780   25.8081 O.2     1  UNL1       -0.2447
     22 O          26.8765   33.4705   25.7005 O.3     1  UNL1       -0.4453
     23 C          27.8103   31.3388   26.4172 C.3     1  UNL1        0.0513
     24 C          27.7013   32.3531   25.2771 C.3     1  UNL1        0.2089
     25 C          24.7561   38.6220   26.7594 C.3     1  UNL1        0.1992
     26 C          23.2957   38.2699   26.6401 C.2     1  UNL1        0.1977
     27 O          22.8644   37.8151   25.6019 O.2     1  UNL1       -0.2892
     28 C          22.3939   38.4779   27.7822 C.ar    1  UNL1        0.0367
     29 C          22.0069   39.7741   28.1428 C.ar    1  UNL1        0.0029
     30 C          21.1608   39.9652   29.2046 C.ar    1  UNL1        0.0001
     31 C          20.6949   38.8696   29.9330 C.ar    1  UNL1        0.0000
     32 C          21.0843   37.5770   29.5792 C.ar    1  UNL1        0.0001
     33 C          21.9253   37.3805   28.5144 C.ar    1  UNL1        0.0029
     34 C          19.7855   39.0793   31.0847 C.ar    1  UNL1        0.0000
     35 C          18.4166   38.8545   30.9455 C.ar    1  UNL1        0.0000
     36 C          17.5755   39.0477   32.0222 C.ar    1  UNL1        0.0000
     37 C          18.0868   39.4725   33.2354 C.ar    1  UNL1        0.0000
     38 C          19.4435   39.7017   33.3783 C.ar    1  UNL1        0.0000
     39 C          20.2951   39.5077   32.3099 C.ar    1  UNL1        0.0000
@<TRIPOS>BOND
     1    23    24    1
     2    24    22    1
     3    22    20    1
     4    20    21    2
     5    20     1    1
     6     1     6   ar
     7     1     2   ar
     8     2     3   ar
     9     2    14    1
    10     3     4   ar
    11     3     8    1
    12     4     5   ar
    13     5     6   ar
    14     5    25    1
    15     6     7    2
    16    25    26    1
    17    26    27    2
    18    26    28    1
    19    28    33   ar
    20    28    29   ar
    21    29    30   ar
    22    30    31   ar
    23    31    32   ar
    24    31    34    1
    25    32    33   ar
    26    34    39   ar
    27    34    35   ar
    28    35    36   ar
    29    36    37   ar
    30    37    38   ar
    31    38    39   ar
    32     8    13   ar
    33     8     9   ar
    34     9    10   ar
    35    10    11   ar
    36    11    12   ar
    37    12    13   ar
    38    14    19   ar
    39    14    15   ar
    40    15    16   ar
    41    16    17   ar
    42    17    18   ar
    43    18    19   ar
@<TRIPOS>MOLECULE
ZINC16923869
 35 38 0 0 0
SMALL
GASTEIGER

@<TRIPOS>ATOM
      1 C          22.5747   38.2436   26.8655 C.3     1  UNL1        0.2780
      2 C          23.6893   39.1759   27.4048 C.3     1  UNL1        0.2377
      3 C          23.3464   39.2528   28.9125 C.3     1  UNL1        0.1309
      4 C          22.4796   38.0044   29.1668 C.3     1  UNL1        0.1754
      5 O          22.3974   37.2814   27.9272 O.3     1  UNL1       -0.3254
      6 C          24.4118   37.4065   25.5735 C.3     1  UNL1        0.1770
      7 O          22.9983   37.5955   25.6645 O.3     1  UNL1       -0.3251
      8 C          21.0794   38.4262   29.6168 C.3     1  UNL1        0.2391
      9 O          21.0969   38.7237   31.0380 O.3     1  UNL1       -0.4427
     10 C          19.9119   38.7185   31.6785 C.2     1  UNL1        0.3413
     11 O          18.9894   38.0583   31.2440 O.2     1  UNL1       -0.2449
     12 C          19.7340   39.5156   32.9096 C.ar    1  UNL1        0.0756
     13 C          20.7798   39.6305   33.8277 C.ar    1  UNL1        0.0064
     14 C          20.6054   40.3725   34.9774 C.ar    1  UNL1        0.0002
     15 C          19.4014   41.0110   35.2166 C.ar    1  UNL1        0.0000
     16 C          18.3627   40.9056   34.3084 C.ar    1  UNL1        0.0002
     17 C          18.5218   40.1625   33.1572 C.ar    1  UNL1        0.0064
     18 S          24.8558   39.1898   29.9095 S.3     1  UNL1       -0.0671
     19 C          24.7146   37.5650   30.5762 C.2     1  UNL1        0.2216
     20 O          23.9449   37.3485   31.4925 O.2     1  UNL1       -0.2797
     21 C          25.5318   36.4649   30.0218 C.ar    1  UNL1        0.0450
     22 C          26.0272   36.5473   28.7196 C.ar    1  UNL1        0.0037
     23 C          26.7928   35.5191   28.2097 C.ar    1  UNL1        0.0001
     24 C          27.0614   34.4035   28.9828 C.ar    1  UNL1        0.0000
     25 C          26.5693   34.3134   30.2728 C.ar    1  UNL1        0.0001
     26 C          25.8064   35.3366   30.7963 C.ar    1  UNL1        0.0037
     27 O          23.6108   40.4880   26.7880 O.3     1  UNL1       -0.4429
     28 C          24.7032   41.2715   26.8758 C.2     1  UNL1        0.3413
     29 O          25.6998   40.9977   26.2375 O.2     1  UNL1       -0.2449
     30 C          24.6891   42.4634   27.7483 C.ar    1  UNL1        0.0756
     31 C          23.4901   42.9081   28.3088 C.ar    1  UNL1        0.0064
     32 C          23.4848   44.0193   29.1262 C.ar    1  UNL1        0.0002
     33 C          24.6625   44.6987   29.3830 C.ar    1  UNL1        0.0000
     34 C          25.8535   44.2663   28.8270 C.ar    1  UNL1        0.0002
     35 C          25.8739   43.1537   28.0117 C.ar    1  UNL1        0.0064
@<TRIPOS>BOND
     1     6     7    1
     2     7     1    1
     3     1     5    1
     4     1     2    1
     5     2     3    1
     6     2    27    1
     7     3     4    1
     8     3    18    1
     9     4     5    1
    10     4     8    1
    11     8     9    1
    12     9    10    1
    13    10    11    2
    14    10    12    1
    15    12    17   ar
    16    12    13   ar
    17    13    14   ar
    18    14    15   ar
    19    15    16   ar
    20    16    17   ar
    21    18    19    1
    22    19    20    2
    23    19    21    1
    24    21    26   ar
    25    21    22   ar
    26    22    23   ar
    27    23    24   ar
    28    24    25   ar
    29    25    26   ar
    30    27    28    1
    31    28    29    2
    32    28    30    1
    33    30    35   ar
    34    30    31   ar
    35    31    32   ar
    36    32    33   ar
    37    33    34   ar
    38    34    35   ar
@<TRIPOS>MOLECULE
ZINC01827353
 35 38 0 0 0
SMALL
GASTEIGER

@<TRIPOS>ATOM
      1 C          26.3232   36.5601   28.5725 C.ar    1  UNL1        0.1784
      2 N          25.7140   37.2823   27.6540 N.ar    1  UNL1       -0.2155
      3 C          24.5497   37.8666   27.9091 C.ar    1  UNL1        0.1169
      4 C          23.9106   37.7487   29.1564 C.ar    1  UNL1        0.0767
      5 C          22.6338   38.4478   29.2842 C.ar    1  UNL1       -0.0088
      6 C          22.1959   39.1316   28.2049 C.ar    1  UNL1        0.0345
      7 S          23.4415   38.8891   26.9712 S.2     1  UNL1       -0.0700
      8 C          20.9234   39.9149   28.1088 C.3     1  UNL1        0.1746
      9 O          20.1005   39.5601   29.2314 O.3     1  UNL1       -0.3506
     10 C          20.7955   39.5942   30.4810 C.3     1  UNL1        0.1200
     11 C          21.7950   38.4364   30.5599 C.3     1  UNL1        0.0564
     12 C          24.5950   36.9599   30.1343 C.ar    1  UNL1        0.2678
     13 O          24.1170   36.8018   31.2446 O.2     1  UNL1       -0.2665
     14 N          25.7699   36.3895   29.8103 N.ar    1  UNL1       -0.2542
     15 C          26.4420   35.6099   30.7630 C.ar    1  UNL1        0.0689
     16 C          27.3113   36.2105   31.6635 C.ar    1  UNL1        0.0208
     17 C          27.9684   35.4433   32.6049 C.ar    1  UNL1        0.0384
     18 C          27.7689   34.0709   32.6435 C.ar    1  UNL1        0.1388
     19 C          26.9043   33.4695   31.7404 C.ar    1  UNL1        0.0384
     20 C          26.2424   34.2365   30.8022 C.ar    1  UNL1        0.0208
     21 O          28.4206   33.3152   33.5667 O.3     1  UNL1       -0.4714
     22 C          27.8747   33.2905   34.8871 C.3     1  UNL1        0.2525
     23 C          19.7873   39.4727   31.6254 C.3     1  UNL1        0.0276
     24 C          18.8842   38.2617   31.3831 C.3     1  UNL1        0.0025
     25 C          20.5358   39.2943   32.9478 C.3     1  UNL1        0.0025
     26 S          27.8671   35.7985   28.1975 S.3     1  UNL1       -0.0650
     27 C          27.6355   35.4708   26.4326 C.3     1  UNL1        0.1742
     28 C          26.9502   34.1405   26.2543 C.2     1  UNL1        0.3286
     29 O          26.5430   33.8119   25.1652 O.2     1  UNL1       -0.2491
     30 O          26.7921   33.3207   27.3053 O.3     1  UNL1       -0.4479
     31 C          27.3815   31.9976   27.2038 C.3     1  UNL1        0.2085
     32 C          27.1015   31.2147   28.4881 C.3     1  UNL1        0.0474
     33 C          26.6920   29.7836   28.1340 C.3     1  UNL1        0.0038
     34 C          26.4994   29.8915   30.6228 C.3     1  UNL1        0.0000
     35 C          26.1136   29.0974   29.3731 C.3     1  UNL1        0.0001
@<TRIPOS>BOND
     1    34    35    1
     2    35    33    1
     3    33    32    1
     4    32    31    1
     5    31    30    1
     6    30    28    1
     7    28    29    2
     8    28    27    1
     9    27    26    1
    10    26     1    1
    11     1    14   ar
    12     1     2   ar
    13     2     3   ar
    14     3     7   ar
    15     3     4   ar
    16     4     5   ar
    17     4    12   ar
    18     5    11    1
    19     5     6   ar
    20     6     7   ar
    21     6     8    1
    22     8     9    1
    23     9    10    1
    24    10    11    1
    25    10    23    1
    26    23    24    1
    27    23    25    1
    28    12    13    2
    29    12    14   ar
    30    14    15    1
    31    15    20   ar
    32    15    16   ar
    33    16    17   ar
    34    17    18   ar
    35    18    19   ar
    36    18    21    1
    37    19    20   ar
    38    21    22    1
@<TRIPOS>MOLECULE
ZINC22327387
 36 38 0 0 0
SMALL
GASTEIGER

@<TRIPOS>ATOM
      1 C          26.2216   44.4545   28.0954 C.2     1  UNL1        0.2260
      2 O          27.3392   44.5423   28.5585 O.2     1  UNL1       -0.2749
      3 N          25.4343   43.4126   28.4282 N.am    1  UNL1       -0.2682
      4 C          25.9106   42.3710   29.3510 C.3     1  UNL1        0.1547
      5 C          25.6806   41.0025   28.7009 C.3     1  UNL1        0.1278
      6 N          24.2714   40.8832   28.3036 N.4     1  UNL1        0.2843
      7 C          23.9181   41.8825   27.2865 C.3     1  UNL1        0.1278
      8 C          24.0759   43.2871   27.8786 C.3     1  UNL1        0.1547
      9 H          23.7001   41.0651   29.1288 H       1  UNL1        0.2073
     10 C          25.7135   45.5106   27.1481 C.3     1  UNL1        0.0853
     11 C          24.9668   46.5875   27.9378 C.3     1  UNL1        0.0096
     12 C          24.3080   47.5682   26.9656 C.3     1  UNL1        0.0005
     13 C          24.3383   48.9764   27.5631 C.3     1  UNL1        0.0000
     14 C          22.9151   49.5348   27.6251 C.3     1  UNL1        0.0000
     15 C          22.4255   49.8417   26.2084 C.3     1  UNL1        0.0003
     16 C          21.0983   50.5994   26.2805 C.3     1  UNL1        0.0047
     17 C          20.7809   50.9345   27.7392 C.3     1  UNL1        0.0260
     18 C          19.1495   49.9614   29.2733 C.2     1  UNL1       -0.0049
     19 C          19.3989   50.4393   28.0793 C.2     1  UNL1       -0.0261
     20 C          23.9700   39.5244   27.8337 C.3     1  UNL1        0.1710
     21 C          22.6217   39.0998   28.3559 C.ar    1  UNL1        0.1814
     22 C          22.1417   37.8799   28.0400 C.ar    1  UNL1        0.0842
     23 C          20.8728   37.4906   28.5369 C.ar    1  UNL1        0.2354
     24 O          20.4044   36.3938   28.2722 O.2     1  UNL1       -0.2831
     25 C          20.1596   38.4126   29.3520 C.ar    1  UNL1        0.2152
     26 C          20.7138   39.6166   29.6138 C.ar    1  UNL1        0.2193
     27 O          21.9199   39.9389   29.1260 O.2     1  UNL1       -0.4454
     28 O          18.9371   38.0896   29.8552 O.3     1  UNL1       -0.4643
     29 C          18.6629   38.4885   31.1997 C.3     1  UNL1        0.2331
     30 C          17.2064   38.8534   31.3283 C.ar    1  UNL1        0.0317
     31 C          16.3509   38.6708   30.2579 C.ar    1  UNL1        0.0002
     32 C          15.0141   39.0015   30.3771 C.ar    1  UNL1       -0.0002
     33 C          14.5337   39.5239   31.5637 C.ar    1  UNL1        0.0008
     34 C          15.3890   39.7117   32.6327 C.ar    1  UNL1        0.0112
     35 C          16.7265   39.3764   32.5156 C.ar    1  UNL1        0.0572
     36 CL         17.8017   39.6127   33.8578 Cl      1  UNL1       -0.0825
@<TRIPOS>UNITY_ATOM_ATTR
6 1
charge 1
@<TRIPOS>BOND
     1    18    19    2
     2    19    17    1
     3    17    16    1
     4    16    15    1
     5    15    14    1
     6    14    13    1
     7    13    12    1
     8    12    11    1
     9    11    10    1
    10    10     1    1
    11     1     2    2
    12     1     3   am
    13     3     8    1
    14     3     4    1
    15     4     5    1
    16     5     6    1
    17     6     7    1
    18     6    20    1
    19     7     8    1
    20    20    21    1
    21    21    27   ar
    22    21    22   ar
    23    22    23   ar
    24    23    24    2
    25    23    25   ar
    26    25    26   ar
    27    25    28    1
    28    26    27   ar
    29    28    29    1
    30    29    30    1
    31    30    35   ar
    32    30    31   ar
    33    31    32   ar
    34    32    33   ar
    35    33    34   ar
    36    34    35   ar
    37    35    36    1
    38     6     9    1
@<TRIPOS>MOLECULE
ZINC11072971
 33 36 0 0 0
SMALL
GASTEIGER

@<TRIPOS>ATOM
      1 N          19.1211   38.7056   31.2446 N.am    1  UNL1       -0.2362
      2 C          19.9066   38.8954   30.1659 C.2     1  UNL1        0.2309
      3 O          19.4067   39.0734   29.0755 O.2     1  UNL1       -0.2745
      4 C          12.8745   38.6114   30.4263 C.ar    1  UNL1       -0.0216
      5 C          13.4013   37.8865   29.3668 C.ar    1  UNL1       -0.0027
      6 C          14.7516   37.7010   29.2272 C.ar    1  UNL1        0.0193
      7 C          15.6570   38.2479   30.1659 C.ar    1  UNL1        0.0892
      8 C          15.0850   38.9798   31.2313 C.ar    1  UNL1        0.0494
      9 C          13.7307   39.1601   31.3632 C.ar    1  UNL1        0.0038
     10 S          16.5158   39.4754   32.1607 S.2     1  UNL1       -0.0512
     11 C          17.7425   38.7138   31.1075 C.ar    1  UNL1        0.1689
     12 N          17.0046   38.1592   30.1743 N.ar    1  UNL1       -0.2237
     13 C          10.7996   37.6658   31.4009 C.3     1  UNL1        0.0050
     14 C          11.3847   38.7983   30.5547 C.3     1  UNL1        0.0264
     15 C          19.7250   38.4906   32.5619 C.3     1  UNL1        0.1295
     16 C          19.2148   39.5540   33.5364 C.3     1  UNL1        0.1355
     17 C          19.7798   39.3017   34.9518 C.3     1  UNL1        0.0339
     18 C          20.0436   40.7185   35.5090 C.3     1  UNL1        0.0346
     19 C          19.6066   41.6593   34.3642 C.3     1  UNL1        0.1422
     20 O          19.7133   40.8582   33.1671 O.3     1  UNL1       -0.3545
     21 C          21.4062   38.8864   30.3150 C.3     1  UNL1        0.0875
     22 C          21.9983   37.7736   29.4478 C.3     1  UNL1        0.0353
     23 C          23.4829   38.0521   29.2043 C.3     1  UNL1        0.1564
     24 S          23.6786   38.9769   27.6560 S.O2    1  UNL1        0.0087
     25 O          24.8665   38.5708   26.9902 O.2     1  UNL1       -0.1686
     26 O          22.4411   39.0334   26.9598 O.2     1  UNL1       -0.1686
     27 C          23.9891   40.6375   28.1567 C.ar    1  UNL1        0.1056
     28 C          25.2596   41.0150   28.5490 C.ar    1  UNL1        0.0180
     29 C          25.5042   42.3191   28.9372 C.ar    1  UNL1       -0.0029
     30 C          24.4760   43.2430   28.9429 C.ar    1  UNL1       -0.0218
     31 C          23.2043   42.8641   28.5555 C.ar    1  UNL1       -0.0029
     32 C          22.9608   41.5614   28.1623 C.ar    1  UNL1        0.0180
     33 C          24.7413   44.6630   29.3720 C.3     1  UNL1        0.0310
@<TRIPOS>BOND
     1    13    14    1
     2    14     4    1
     3     4     9   ar
     4     4     5   ar
     5     5     6   ar
     6     6     7   ar
     7     7    12   ar
     8     7     8   ar
     9     8     9   ar
    10     8    10   ar
    11    10    11   ar
    12    11    12   ar
    13    11     1    1
    14     1    15    1
    15     1     2   am
    16    15    16    1
    17    16    20    1
    18    16    17    1
    19    17    18    1
    20    18    19    1
    21    19    20    1
    22     2     3    2
    23     2    21    1
    24    21    22    1
    25    22    23    1
    26    23    24    1
    27    24    25    2
    28    24    26    2
    29    24    27    1
    30    27    32   ar
    31    27    28   ar
    32    28    29   ar
    33    29    30   ar
    34    30    31   ar
    35    30    33    1
    36    31    32   ar
@<TRIPOS>MOLECULE
ZINC08450916
 46 50 0 0 0
SMALL
GASTEIGER

@<TRIPOS>ATOM
      1 C          24.7349   37.6482   28.5607 C.2     1  UNL1        0.0917
      2 C          25.7650   36.7808   28.7940 C.2     1  UNL1        0.0658
      3 N          26.7917   36.7114   27.9560 N.2     1  UNL1       -0.2267
      4 C          26.9192   37.4308   26.8697 C.ar    1  UNL1        0.1779
      5 N          25.9981   38.3628   26.4504 N.ar    1  UNL1       -0.2689
      6 C          26.2408   39.0441   25.3231 C.ar    1  UNL1        0.2688
      7 O          25.4577   39.8824   24.9163 O.2     1  UNL1       -0.2664
      8 C          27.4786   38.7456   24.5897 C.ar    1  UNL1        0.0884
      9 C          27.9497   39.2850   23.4356 C.2     1  UNL1        0.0113
     10 S          28.1996   37.4867   25.6313 S.2     1  UNL1       -0.0455
     11 C          24.8030   38.5180   27.3266 C.3     1  UNL1        0.1427
     12 C          25.7350   35.8960   30.0135 C.3     1  UNL1        0.0521
     13 C          27.0992   40.1823   22.6440 C.ar    1  UNL1        0.0006
     14 C          27.0223   41.5435   22.9658 C.ar    1  UNL1        0.0031
     15 C          26.2229   42.3800   22.2205 C.ar    1  UNL1        0.0367
     16 C          25.4925   41.8763   21.1500 C.ar    1  UNL1        0.1382
     17 C          25.5649   40.5265   20.8262 C.ar    1  UNL1        0.0551
     18 C          26.3613   39.6805   21.5647 C.ar    1  UNL1        0.0024
     19 O          24.7099   42.7072   20.4148 O.3     1  UNL1       -0.4716
     20 C          25.3718   43.7292   19.6671 C.3     1  UNL1        0.2525
     21 C          24.7698   39.9881   19.6647 C.3     1  UNL1        0.2352
     22 O          25.5867   39.9780   18.4922 O.3     1  UNL1       -0.4658
     23 C          24.9573   39.7803   17.3028 C.ar    1  UNL1        0.1980
     24 C          24.7502   38.4909   16.8322 C.ar    1  UNL1        0.2034
     25 C          24.1037   38.2914   15.6232 C.ar    1  UNL1        0.1728
     26 C          23.6747   39.3772   14.8792 C.ar    1  UNL1        0.0641
     27 C          23.8854   40.6640   15.3442 C.ar    1  UNL1        0.1728
     28 C          24.5263   40.8675   16.5554 C.ar    1  UNL1        0.2034
     29 F          24.7322   42.1235   17.0085 F       1  UNL1       -0.1985
     30 F          23.4662   41.7220   14.6161 F       1  UNL1       -0.2016
     31 F          23.8964   37.0365   15.1676 F       1  UNL1       -0.2016
     32 F          25.1740   37.4312   17.5550 F       1  UNL1       -0.1985
     33 C          24.7369   39.9569   27.7696 C.ar    1  UNL1        0.0029
     34 C          25.8036   40.5203   28.4458 C.ar    1  UNL1       -0.0009
     35 C          25.7486   41.8402   28.8481 C.ar    1  UNL1        0.0143
     36 C          24.6156   42.5990   28.5829 C.ar    1  UNL1        0.0479
     37 C          23.5436   42.0283   27.9084 C.ar    1  UNL1        0.0143
     38 C          23.6075   40.7094   27.5038 C.ar    1  UNL1       -0.0009
     39 N          24.5545   43.9327   28.9930 N.pl3   1  UNL1       -0.3041
     40 C          25.2763   44.3640   30.1927 C.3     1  UNL1        0.1122
     41 C          23.7685   44.9004   28.2236 C.3     1  UNL1        0.1122
     42 C          23.6448   37.7292   29.4425 C.2     1  UNL1        0.3404
     43 O          23.7502   38.3487   30.4860 O.2     1  UNL1       -0.2451
     44 O          22.4793   37.1202   29.1335 O.3     1  UNL1       -0.4456
     45 C          21.1969   37.8243   27.2099 C.3     1  UNL1        0.0513
     46 C          21.3985   37.9589   28.7206 C.3     1  UNL1        0.2089
@<TRIPOS>BOND
     1    45    46    1
     2    46    44    1
     3    44    42    1
     4    42    43    2
     5    42     1    1
     6     1    11    1
     7     1     2    2
     8     2     3    1
     9     2    12    1
    10     3     4    2
    11     4    10   ar
    12     4     5   ar
    13     5     6   ar
    14     5    11    1
    15     6     7    2
    16     6     8   ar
    17     8     9    2
    18     8    10   ar
    19     9    13    1
    20    13    18   ar
    21    13    14   ar
    22    14    15   ar
    23    15    16   ar
    24    16    17   ar
    25    16    19    1
    26    17    18   ar
    27    17    21    1
    28    21    22    1
    29    22    23    1
    30    23    28   ar
    31    23    24   ar
    32    24    25   ar
    33    24    32    1
    34    25    26   ar
    35    25    31    1
    36    26    27   ar
    37    27    28   ar
    38    27    30    1
    39    28    29    1
    40    19    20    1
    41    11    33    1
    42    33    38   ar
    43    33    34   ar
    44    34    35   ar
    45    35    36   ar
    46    36    37   ar
    47    36    39    1
    48    37    38   ar
    49    39    40    1
    50    39    41    1
@<TRIPOS>MOLECULE
ZINC26167380
 35 38 0 0 0
SMALL
GASTEIGER

@<TRIPOS>ATOM
      1 C          14.5253   38.0898   29.6972 C.ar    1  UNL1        0.0824
      2 C          13.1967   38.1306   30.1061 C.ar    1  UNL1        0.0193
      3 C          12.2109   37.6012   29.3035 C.ar    1  UNL1        0.0080
      4 C          12.5483   37.0120   28.0818 C.ar    1  UNL1        0.0758
      5 C          13.8853   36.9679   27.6768 C.ar    1  UNL1        0.0080
      6 C          14.8649   37.5045   28.4822 C.ar    1  UNL1        0.0193
      7 C          18.9849   39.0325   31.6438 C.3     1  UNL1        0.0536
      8 C          17.5036   39.0434   31.3668 C.ar    1  UNL1        0.0765
      9 C          16.5489   39.8089   32.0461 C.ar    1  UNL1        0.0072
     10 C          15.3385   39.5445   31.5029 C.ar    1  UNL1        0.0580
     11 N          15.5227   38.6336   30.5121 N.ar    1  UNL1       -0.2343
     12 N          16.8904   38.3363   30.4528 N.ar    1  UNL1       -0.1701
     13 C          14.0237   40.1502   31.9217 C.3     1  UNL1        0.0518
     14 C          16.8222   40.7646   33.1789 C.3     1  UNL1        0.0405
     15 C          17.6799   40.0686   34.2376 C.3     1  UNL1        0.1143
     16 C          18.8167   40.9735   34.6373 C.2     1  UNL1        0.3174
     17 O          18.6724   42.1728   34.6109 O.2     1  UNL1       -0.2501
     18 O          19.9899   40.4469   35.0226 O.3     1  UNL1       -0.4444
     19 C          19.9983   39.0359   35.3649 C.3     1  UNL1        0.2556
     20 C          11.4958   36.4378   27.2221 C.2     1  UNL1        0.3417
     21 O          10.6791   35.6707   27.6919 O.2     1  UNL1       -0.2449
     22 O          11.4402   36.7640   25.9159 O.3     1  UNL1       -0.4350
     23 C          10.1668   37.2441   25.4099 C.3     1  UNL1        0.2957
     24 C          10.3359   38.6394   24.8664 C.ar    1  UNL1        0.2812
     25 N          10.7089   38.9616   23.6529 N.ar    1  UNL1       -0.1876
     26 C          10.7197   40.3134   23.6233 C.ar    1  UNL1        0.2034
     27 N          10.3564   40.7286   24.8089 N.ar    1  UNL1       -0.0559
     28 O          10.1281   39.7807   25.5303 O.2     1  UNL1       -0.3331
     29 C          11.0775   41.1663   22.4627 C.ar    1  UNL1        0.0392
     30 C          11.0181   40.6488   21.1702 C.ar    1  UNL1        0.0040
     31 C          11.3462   41.4475   20.0940 C.ar    1  UNL1        0.0115
     32 C          11.7455   42.7574   20.2974 C.ar    1  UNL1        0.0577
     33 C          11.8113   43.2746   21.5800 C.ar    1  UNL1        0.0115
     34 C          11.4796   42.4855   22.6622 C.ar    1  UNL1        0.0040
     35 CL         12.1646   43.7549   18.9397 Cl      1  UNL1       -0.0822
@<TRIPOS>BOND
     1     7     8    1
     2     8    12   ar
     3     8     9   ar
     4     9    10   ar
     5     9    14    1
     6    10    11   ar
     7    10    13    1
     8    11    12   ar
     9    11     1    1
    10     1     6   ar
    11     1     2   ar
    12     2     3   ar
    13     3     4   ar
    14     4     5   ar
    15     4    20    1
    16     5     6   ar
    17    20    21    2
    18    20    22    1
    19    22    23    1
    20    23    24    1
    21    24    28   ar
    22    24    25   ar
    23    25    26   ar
    24    26    27   ar
    25    26    29    1
    26    27    28   ar
    27    29    34   ar
    28    29    30   ar
    29    30    31   ar
    30    31    32   ar
    31    32    33   ar
    32    32    35    1
    33    33    34   ar
    34    14    15    1
    35    15    16    1
    36    16    17    2
    37    16    18    1
    38    18    19    1
@<TRIPOS>MOLECULE
ZINC23566832
 34 37 0 0 0
SMALL
GASTEIGER

@<TRIPOS>ATOM
      1 C          21.7259   38.3487   26.6288 C.3     1  UNL1        0.2766
      2 C          23.0085   38.0396   25.9004 C.2     1  UNL1        0.2181
      3 O          23.2603   36.8986   25.5728 O.2     1  UNL1       -0.2873
      4 C          25.6037   41.6564   23.4217 C.3     1  UNL1        0.0500
      5 C          25.0889   40.7114   24.4766 C.ar    1  UNL1        0.0372
      6 C          24.1236   39.7944   24.2963 C.ar    1  UNL1        0.0168
      7 C          23.9509   39.1162   25.5879 C.ar    1  UNL1        0.0512
      8 C          24.8602   39.7029   26.4477 C.ar    1  UNL1        0.0400
      9 N          25.5312   40.6486   25.7663 N.ar    1  UNL1       -0.3335
     10 C          25.0643   39.3452   27.8973 C.3     1  UNL1        0.0501
     11 C          26.5844   41.4963   26.3307 C.3     1  UNL1        0.1106
     12 C          26.2024   42.9677   26.1572 C.3     1  UNL1        0.0574
     13 C          25.4961   43.4528   27.3969 C.ar    1  UNL1        0.0092
     14 C          25.9835   44.1928   28.4227 C.ar    1  UNL1        0.0028
     15 C          25.1410   44.5302   29.4653 C.ar    1  UNL1        0.0072
     16 C          23.8539   44.1063   29.4341 C.ar    1  UNL1        0.0351
     17 S          23.8008   43.2005   27.8966 S.2     1  UNL1       -0.0907
     18 O          21.5117   37.3615   27.6719 O.3     1  UNL1       -0.4399
     19 C          21.7372   37.7522   28.9361 C.2     1  UNL1        0.3194
     20 O          22.6316   37.2486   29.5736 O.2     1  UNL1       -0.2500
     21 C          20.8749   38.8187   29.5604 C.3     1  UNL1        0.1341
     22 C          20.9634   38.7187   31.0846 C.3     1  UNL1        0.1222
     23 N          19.6909   39.1390   31.6763 N.ar    1  UNL1       -0.2776
     24 C          19.6971   39.8329   32.8435 C.ar    1  UNL1        0.1813
     25 N          18.5841   40.2293   33.4002 N.ar    1  UNL1       -0.2186
     26 C          17.4063   39.9571   32.8461 C.ar    1  UNL1        0.1164
     27 C          17.2989   39.2397   31.6410 C.ar    1  UNL1        0.0762
     28 C          18.5391   38.8249   31.0548 C.ar    1  UNL1        0.2636
     29 O          18.5506   38.1970   30.0100 O.2     1  UNL1       -0.2669
     30 C          15.9424   39.0269   31.1722 C.ar    1  UNL1       -0.0132
     31 C          14.9170   39.5103   31.8918 C.ar    1  UNL1        0.0053
     32 S          15.7189   40.2995   33.2747 S.2     1  UNL1       -0.0725
     33 C          13.4419   39.4092   31.6006 C.3     1  UNL1        0.0379
     34 C          15.6873   38.2729   29.8927 C.3     1  UNL1        0.0314
@<TRIPOS>BOND
     1     4     5    1
     2     5     9   ar
     3     5     6   ar
     4     6     7   ar
     5     7     8   ar
     6     7     2    1
     7     8     9   ar
     8     8    10    1
     9     9    11    1
    10    11    12    1
    11    12    13    1
    12    13    17   ar
    13    13    14   ar
    14    14    15   ar
    15    15    16   ar
    16    16    17   ar
    17     2     3    2
    18     2     1    1
    19     1    18    1
    20    18    19    1
    21    19    20    2
    22    19    21    1
    23    21    22    1
    24    22    23    1
    25    23    28   ar
    26    23    24   ar
    27    24    25   ar
    28    25    26   ar
    29    26    32   ar
    30    26    27   ar
    31    27    28   ar
    32    27    30   ar
    33    28    29    2
    34    30    31   ar
    35    30    34    1
    36    31    32   ar
    37    31    33    1
@<TRIPOS>MOLECULE
ZINC02400825
 37 41 0 0 0
SMALL
GASTEIGER

@<TRIPOS>ATOM
      1 N          26.6954   36.2450   31.6869 N.ar    1  UNL1       -0.2839
      2 C          25.4300   36.1077   32.1496 C.ar    1  UNL1        0.1245
      3 N          24.4221   36.7500   31.6275 N.ar    1  UNL1       -0.2147
      4 C          24.5850   37.5809   30.5860 C.ar    1  UNL1        0.1562
      5 C          25.8689   37.7594   30.0601 C.ar    1  UNL1        0.1112
      6 C          26.9504   37.0617   30.6401 C.ar    1  UNL1        0.2662
      7 O          28.0832   37.1924   30.2091 O.2     1  UNL1       -0.2668
      8 C          25.7438   38.7083   28.9458 C.ar    1  UNL1        0.1232
      9 C          24.3655   39.0458   28.8723 C.ar    1  UNL1        0.1668
     10 N          23.7037   38.3522   29.8688 N.ar    1  UNL1       -0.2753
     11 N          23.9433   39.8921   27.9535 N.ar    1  UNL1       -0.2248
     12 C          24.8131   40.4317   27.0922 C.ar    1  UNL1        0.1005
     13 C          24.3820   41.3358   26.1052 C.ar    1  UNL1        0.0207
     14 C          25.2844   41.8716   25.2390 C.ar    1  UNL1        0.0016
     15 C          26.6363   41.5391   25.3137 C.ar    1  UNL1        0.0016
     16 C          27.0912   40.6683   26.2548 C.ar    1  UNL1        0.0206
     17 C          26.1885   40.0932   27.1678 C.ar    1  UNL1        0.0990
     18 N          26.6114   39.2347   28.1009 N.ar    1  UNL1       -0.2405
     19 C          25.1785   35.1843   33.3137 C.3     1  UNL1        0.0720
     20 C          22.3313   38.4259   30.1119 C.ar    1  UNL1        0.0667
     21 C          21.8629   39.0545   31.2612 C.ar    1  UNL1        0.0178
     22 C          20.5097   39.1340   31.5014 C.ar    1  UNL1        0.0079
     23 C          19.6064   38.5722   30.5944 C.ar    1  UNL1        0.0757
     24 C          20.0809   37.9363   29.4432 C.ar    1  UNL1        0.0079
     25 C          21.4352   37.8656   29.2069 C.ar    1  UNL1        0.0178
     26 C          18.1563   38.6496   30.8513 C.2     1  UNL1        0.3412
     27 O          17.3675   38.4233   29.9552 O.2     1  UNL1       -0.2449
     28 O          17.7060   38.9711   32.0800 O.3     1  UNL1       -0.4454
     29 C          16.2904   39.2685   32.2064 C.3     1  UNL1        0.2088
     30 C          15.9797   39.6657   33.6508 C.3     1  UNL1        0.0475
     31 C          15.8338   41.1862   33.7415 C.3     1  UNL1        0.0040
     32 C          27.7891   35.5023   32.3181 C.3     1  UNL1        0.1102
     33 C          28.4927   36.3995   33.3385 C.3     1  UNL1        0.0246
     34 C          29.0239   35.5433   34.4898 C.3     1  UNL1        0.0020
     35 C          27.9556   35.4346   35.5797 C.3     1  UNL1        0.0001
     36 C          27.0469   33.8922   37.3226 C.3     1  UNL1        0.0000
     37 C          27.7903   33.9693   35.9876 C.3     1  UNL1        0.0000
@<TRIPOS>BOND
     1    36    37    1
     2    37    35    1
     3    35    34    1
     4    34    33    1
     5    33    32    1
     6    32     1    1
     7     1     6   ar
     8     1     2   ar
     9     2     3   ar
    10     2    19    1
    11     3     4   ar
    12     4    10   ar
    13     4     5   ar
    14     5     6   ar
    15     5     8   ar
    16     6     7    2
    17     8    18   ar
    18     8     9   ar
    19     9    10   ar
    20     9    11   ar
    21    10    20    1
    22    20    25   ar
    23    20    21   ar
    24    21    22   ar
    25    22    23   ar
    26    23    24   ar
    27    23    26    1
    28    24    25   ar
    29    26    27    2
    30    26    28    1
    31    28    29    1
    32    29    30    1
    33    30    31    1
    34    11    12   ar
    35    12    17   ar
    36    12    13   ar
    37    13    14   ar
    38    14    15   ar
    39    15    16   ar
    40    16    17   ar
    41    17    18   ar
@<TRIPOS>MOLECULE
ZINC03168643
 36 40 0 0 0
SMALL
GASTEIGER

@<TRIPOS>ATOM
      1 C          20.2218   38.7982   29.7094 C.3     1  UNL1        0.1501
      2 N          22.6401   38.4538   30.0985 N.am    1  UNL1       -0.2781
      3 C          21.4988   38.0187   29.5288 C.2     1  UNL1        0.2379
      4 O          21.4994   36.9998   28.8709 O.2     1  UNL1       -0.2738
      5 H          22.6396   39.2808   30.6326 H       1  UNL1        0.1553
      6 C          24.8226   37.9386   29.0037 C.ar    1  UNL1        0.0915
      7 C          25.9711   37.0334   29.0440 C.ar    1  UNL1       -0.0122
      8 C          25.9144   36.0808   29.9917 C.ar    1  UNL1        0.0047
      9 S          24.3749   36.3671   30.8299 S.2     1  UNL1       -0.0767
     10 C          23.8147   37.7367   29.9324 C.ar    1  UNL1        0.0864
     11 C          27.1267   35.1895   29.9688 C.3     1  UNL1        0.0330
     12 C          28.1725   35.9760   29.1481 C.3     1  UNL1        0.0099
     13 C          27.2745   36.8628   28.2625 C.3     1  UNL1        0.0272
     14 C          24.7434   39.0211   28.0207 C.2     1  UNL1        0.3426
     15 O          25.5649   39.9182   28.0364 O.2     1  UNL1       -0.2448
     16 O          23.7598   39.0236   27.0978 O.3     1  UNL1       -0.4454
     17 C          22.2747   37.7029   25.6905 C.3     1  UNL1        0.0513
     18 C          23.7098   37.8958   26.1845 C.3     1  UNL1        0.2089
     19 S          19.8313   38.9163   31.4729 S.3     1  UNL1       -0.0674
     20 C          18.0714   38.8720   31.4002 C.ar    1  UNL1        0.1746
     21 N          17.4764   38.4722   30.2944 N.ar    1  UNL1       -0.2158
     22 C          16.1518   38.4339   30.2107 C.ar    1  UNL1        0.1168
     23 C          15.3241   38.8077   31.2827 C.ar    1  UNL1        0.0763
     24 C          13.8832   38.7136   31.0409 C.ar    1  UNL1       -0.0136
     25 C          13.4938   38.2818   29.8245 C.ar    1  UNL1        0.0049
     26 S          14.9995   37.9784   28.9398 S.2     1  UNL1       -0.0725
     27 C          12.0902   38.0994   29.3325 C.3     1  UNL1        0.0327
     28 C          11.1456   38.1230   30.5427 C.3     1  UNL1        0.0055
     29 C          11.5051   39.3237   31.4228 C.3     1  UNL1        0.0050
     30 C          12.8526   39.0833   32.1042 C.3     1  UNL1        0.0268
     31 C          15.9973   39.2323   32.4718 C.ar    1  UNL1        0.2642
     32 O          15.3609   39.5748   33.4536 O.2     1  UNL1       -0.2669
     33 N          17.3428   39.2478   32.4915 N.ar    1  UNL1       -0.2714
     34 C          18.0388   39.6823   33.7052 C.3     1  UNL1        0.1374
     35 C          18.1558   41.1847   33.7067 C.2     1  UNL1       -0.0016
     36 C          19.1766   41.7617   34.2908 C.2     1  UNL1       -0.0029
@<TRIPOS>BOND
     1    17    18    1
     2    18    16    1
     3    16    14    1
     4    14    15    2
     5    14     6    1
     6     6    10   ar
     7     6     7   ar
     8     7    13    1
     9     7     8   ar
    10     8     9   ar
    11     8    11    1
    12     9    10   ar
    13    10     2    1
    14     2     3   am
    15     3     4    2
    16     3     1    1
    17     1    19    1
    18    19    20    1
    19    20    33   ar
    20    20    21   ar
    21    21    22   ar
    22    22    26   ar
    23    22    23   ar
    24    23    24   ar
    25    23    31   ar
    26    24    30    1
    27    24    25   ar
    28    25    26   ar
    29    25    27    1
    30    27    28    1
    31    28    29    1
    32    29    30    1
    33    31    32    2
    34    31    33   ar
    35    33    34    1
    36    34    35    1
    37    35    36    2
    38    11    12    1
    39    12    13    1
    40     2     5    1
@<TRIPOS>MOLECULE
ZINC20676022
 38 41 0 0 0
SMALL
GASTEIGER

@<TRIPOS>ATOM
      1 N          25.6671   39.2897   28.1689 N.am    1  UNL1       -0.2294
      2 C          25.3827   40.6278   28.4057 C.ar    1  UNL1        0.2072
      3 N          26.0434   41.4815   29.1395 N.ar    1  UNL1       -0.2133
      4 C          25.4368   42.6840   29.0837 C.ar    1  UNL1        0.0999
      5 C          25.7452   43.9137   29.6761 C.ar    1  UNL1        0.0207
      6 C          24.9130   44.9775   29.3876 C.ar    1  UNL1        0.0016
      7 C          23.8044   44.8388   28.5702 C.ar    1  UNL1        0.0016
      8 C          23.4747   43.6305   27.9785 C.ar    1  UNL1        0.0188
      9 C          24.3083   42.5492   28.2391 C.ar    1  UNL1        0.0801
     10 N          24.2905   41.2455   27.8398 N.ar    1  UNL1       -0.2962
     11 C          23.3341   40.5350   26.9863 C.3     1  UNL1        0.1300
     12 C          24.0669   39.4021   26.2632 C.3     1  UNL1        0.2003
     13 C          24.9676   38.6536   27.2058 C.2     1  UNL1        0.2440
     14 O          25.0684   37.4499   27.0979 O.2     1  UNL1       -0.2738
     15 C          22.2287   39.9613   27.8347 C.ar    1  UNL1        0.0025
     16 C          21.6922   40.7090   28.8665 C.ar    1  UNL1        0.0009
     17 C          20.6742   40.1894   29.6440 C.ar    1  UNL1        0.0398
     18 C          20.1970   38.9121   29.3973 C.ar    1  UNL1        0.1722
     19 C          20.7408   38.1574   28.3624 C.ar    1  UNL1        0.1721
     20 C          21.7571   38.6864   27.5833 C.ar    1  UNL1        0.0376
     21 O          20.2755   36.9035   28.1162 O.3     1  UNL1       -0.4684
     22 C          21.1110   35.8128   28.5089 C.3     1  UNL1        0.2526
     23 O          19.1989   38.3975   30.1645 O.3     1  UNL1       -0.4724
     24 C          19.3239   38.5505   31.5798 C.3     1  UNL1        0.2056
     25 C          18.0819   39.2560   32.1282 C.3     1  UNL1        0.0473
     26 C          18.2574   39.5054   33.6274 C.3     1  UNL1        0.0037
     27 C          19.6407   39.0212   34.0666 C.3     1  UNL1        0.0001
     28 C          18.1266   41.0027   33.9141 C.3     1  UNL1        0.0001
     29 C          24.8938   39.9823   25.1448 C.2     1  UNL1        0.3276
     30 O          26.0532   39.6648   25.0232 O.2     1  UNL1       -0.2495
     31 O          24.3422   40.8518   24.2838 O.3     1  UNL1       -0.4481
     32 C          24.4689   40.5492   22.8693 C.3     1  UNL1        0.2086
     33 C          23.1425   39.9952   22.3454 C.3     1  UNL1        0.0513
     34 C          26.6918   38.5876   28.9456 C.3     1  UNL1        0.1010
     35 C          26.1015   38.1437   30.2854 C.3     1  UNL1        0.0220
     36 C          25.7618   36.6530   30.2244 C.3     1  UNL1        0.0018
     37 C          23.5807   37.7580   30.7382 C.3     1  UNL1        0.0000
     38 C          24.3428   36.4313   30.7519 C.3     1  UNL1        0.0001
@<TRIPOS>BOND
     1    37    38    1
     2    38    36    1
     3    36    35    1
     4    35    34    1
     5    34     1    1
     6     1    13   am
     7     1     2    1
     8     2    10   ar
     9     2     3   ar
    10     3     4   ar
    11     4     9   ar
    12     4     5   ar
    13     5     6   ar
    14     6     7   ar
    15     7     8   ar
    16     8     9   ar
    17     9    10   ar
    18    10    11    1
    19    11    12    1
    20    11    15    1
    21    12    13    1
    22    12    29    1
    23    13    14    2
    24    29    30    2
    25    29    31    1
    26    31    32    1
    27    32    33    1
    28    15    20   ar
    29    15    16   ar
    30    16    17   ar
    31    17    18   ar
    32    18    19   ar
    33    18    23    1
    34    19    20   ar
    35    19    21    1
    36    21    22    1
    37    23    24    1
    38    24    25    1
    39    25    26    1
    40    26    27    1
    41    26    28    1
@<TRIPOS>MOLECULE
ZINC15319411
 36 39 0 0 0
SMALL
GASTEIGER

@<TRIPOS>ATOM
      1 C          23.3622   37.5875   28.8860 C.2     1  UNL1        0.0473
      2 C          24.2503   37.8179   27.9037 C.3     1  UNL1        0.1430
      3 C          25.7250   37.8319   28.1744 C.3     1  UNL1        0.0641
      4 C          26.0428   37.1570   29.4849 C.2     1  UNL1        0.0312
      5 C          25.0752   36.9404   30.4031 C.2     1  UNL1        0.0577
      6 N          23.7890   37.3432   30.1616 N.2     1  UNL1       -0.2579
      7 C          25.3860   36.2684   31.7157 C.3     1  UNL1        0.0514
      8 C          26.8267   36.5747   32.1265 C.3     1  UNL1        0.0523
      9 C          27.7636   36.0934   31.0137 C.3     1  UNL1        0.1650
     10 C          27.3694   36.7559   29.7218 C.2     1  UNL1        0.1812
     11 O          28.2125   36.9481   28.8681 O.2     1  UNL1       -0.2910
     12 C          26.1977   39.2618   28.2268 C.ar    1  UNL1       -0.0213
     13 C          25.7969   40.0849   29.2629 C.ar    1  UNL1       -0.0042
     14 C          26.2344   41.3950   29.3137 C.ar    1  UNL1       -0.0003
     15 C          27.0645   41.8854   28.3229 C.ar    1  UNL1       -0.0003
     16 C          27.4606   41.0643   27.2840 C.ar    1  UNL1       -0.0046
     17 C          27.0273   39.7522   27.2360 C.ar    1  UNL1       -0.0255
     18 C          27.4591   38.8571   26.1033 C.3     1  UNL1        0.0307
     19 C          27.1521   35.8541   33.4094 C.ar    1  UNL1        0.0083
     20 C          26.3990   34.9679   34.1054 C.ar    1  UNL1        0.0027
     21 C          26.9074   34.4257   35.2708 C.ar    1  UNL1        0.0072
     22 C          28.1444   34.7963   35.6831 C.ar    1  UNL1        0.0351
     23 S          28.6331   35.9403   34.4027 S.2     1  UNL1       -0.0908
     24 C          27.6485   34.5977   30.8691 C.2     1  UNL1        0.3243
     25 O          28.4010   33.8726   31.4756 O.2     1  UNL1       -0.2496
     26 O          26.7102   34.0712   30.0666 O.3     1  UNL1       -0.4482
     27 C          27.1490   33.0775   29.1030 C.3     1  UNL1        0.2086
     28 C          27.0235   33.6482   27.6889 C.3     1  UNL1        0.0513
     29 C          23.7847   38.0541   26.5891 C.2     1  UNL1        0.3225
     30 O          23.5952   37.1190   25.8337 O.2     1  UNL1       -0.2497
     31 O          23.5508   39.3161   26.1725 O.3     1  UNL1       -0.4482
     32 C          23.9591   39.6470   24.8436 C.3     1  UNL1        0.2086
     33 C          24.6332   41.0204   24.8443 C.3     1  UNL1        0.0513
     34 C          21.8869   37.5986   28.5794 C.3     1  UNL1        0.0419
     35 C          21.3497   40.0148   28.9204 C.3     1  UNL1        0.0004
     36 C          21.1839   38.6053   29.4922 C.3     1  UNL1        0.0060
@<TRIPOS>BOND
     1    35    36    1
     2    36    34    1
     3    34     1    1
     4     1     6    2
     5     1     2    1
     6     2     3    1
     7     2    29    1
     8     3     4    1
     9     3    12    1
    10     4    10    1
    11     4     5    2
    12     5     7    1
    13     5     6    1
    14     7     8    1
    15     8     9    1
    16     8    19    1
    17     9    10    1
    18     9    24    1
    19    10    11    2
    20    24    25    2
    21    24    26    1
    22    26    27    1
    23    27    28    1
    24    19    23   ar
    25    19    20   ar
    26    20    21   ar
    27    21    22   ar
    28    22    23   ar
    29    12    17   ar
    30    12    13   ar
    31    13    14   ar
    32    14    15   ar
    33    15    16   ar
    34    16    17   ar
    35    17    18    1
    36    29    30    2
    37    29    31    1
    38    31    32    1
    39    32    33    1
@<TRIPOS>MOLECULE
ZINC11406248
 36 38 0 0 0
SMALL
GASTEIGER

@<TRIPOS>ATOM
      1 C          21.5692   38.5413   28.6318 C.2     1  UNL1        0.0758
      2 C          21.2234   39.7892   28.2089 C.2     1  UNL1        0.0065
      3 C          25.6501   37.6073   29.3914 C.ar    1  UNL1        0.1724
      4 C          24.8141   37.9654   30.4385 C.ar    1  UNL1        0.0401
      5 C          23.4917   38.2738   30.1946 C.ar    1  UNL1        0.0035
      6 C          22.9899   38.2155   28.8942 C.ar    1  UNL1        0.0095
      7 C          23.8303   37.8553   27.8407 C.ar    1  UNL1        0.0403
      8 C          25.1565   37.5523   28.0902 C.ar    1  UNL1        0.1724
      9 C          27.2630   36.7496   30.9139 C.3     1  UNL1        0.2526
     10 O          26.9540   37.3088   29.6356 O.3     1  UNL1       -0.4684
     11 O          25.9782   37.2005   27.0654 O.3     1  UNL1       -0.4684
     12 C          26.0284   38.0824   25.9421 C.3     1  UNL1        0.2526
     13 C          22.2319   40.8535   28.1620 C.ar    1  UNL1        0.0034
     14 C          22.0644   42.0145   28.9279 C.ar    1  UNL1        0.0033
     15 C          23.0154   43.0096   28.8853 C.ar    1  UNL1        0.0402
     16 C          24.1359   42.8707   28.0767 C.ar    1  UNL1        0.1779
     17 C          24.3078   41.7204   27.3071 C.ar    1  UNL1        0.1726
     18 C          23.3627   40.7147   27.3469 C.ar    1  UNL1        0.0401
     19 O          25.4071   41.5890   26.5173 O.3     1  UNL1       -0.4684
     20 C          25.2327   41.8229   25.1184 C.3     1  UNL1        0.2526
     21 O          25.0673   43.8584   28.0349 O.3     1  UNL1       -0.4205
     22 C          24.7422   45.0849   28.6924 C.3     1  UNL1        0.5087
     23 F          25.2550   45.0663   29.9939 F       1  UNL1       -0.1550
     24 F          25.3014   46.1551   27.9861 F       1  UNL1       -0.1550
     25 C          20.5330   37.5188   28.8275 C.2     1  UNL1        0.3415
     26 O          20.5061   36.5357   28.1126 O.2     1  UNL1       -0.2449
     27 O          19.6113   37.6705   29.8003 O.3     1  UNL1       -0.4404
     28 C          19.9403   38.5789   30.8842 C.3     1  UNL1        0.2354
     29 C          18.6888   38.9192   31.6518 C.ar    1  UNL1        0.0219
     30 C          18.7782   39.3341   32.9689 C.ar    1  UNL1       -0.0006
     31 C          17.6345   39.6484   33.6810 C.ar    1  UNL1        0.0005
     32 C          16.3962   39.5546   33.0797 C.ar    1  UNL1        0.0103
     33 C          16.2983   39.1310   31.7531 C.ar    1  UNL1        0.0682
     34 C          17.4569   38.8158   31.0400 C.ar    1  UNL1        0.0096
     35 C          15.0160   39.0259   31.1244 C.1     1  UNL1        0.1004
     36 N          13.9987   38.9426   30.6257 N.1     1  UNL1       -0.1908
@<TRIPOS>BOND
     1     9    10    1
     2    10     3    1
     3     3     8   ar
     4     3     4   ar
     5     4     5   ar
     6     5     6   ar
     7     6     7   ar
     8     6     1    1
     9     7     8   ar
    10     8    11    1
    11    11    12    1
    12     1     2    2
    13     1    25    1
    14     2    13    1
    15    13    18   ar
    16    13    14   ar
    17    14    15   ar
    18    15    16   ar
    19    16    17   ar
    20    16    21    1
    21    17    18   ar
    22    17    19    1
    23    19    20    1
    24    21    22    1
    25    22    23    1
    26    22    24    1
    27    25    26    2
    28    25    27    1
    29    27    28    1
    30    28    29    1
    31    29    34   ar
    32    29    30   ar
    33    30    31   ar
    34    31    32   ar
    35    32    33   ar
    36    33    34   ar
    37    33    35    1
    38    35    36    3
@<TRIPOS>MOLECULE
ZINC09424564
 35 37 0 0 0
SMALL
GASTEIGER

@<TRIPOS>ATOM
      1 N          23.1278   37.5817   26.5008 N.pl3   1  UNL1       -0.3058
      2 H          23.4183   36.6716   26.2632 H       1  UNL1        0.1527
      3 C          23.1504   37.9270   28.9795 C.ar    1  UNL1        0.0919
      4 C          22.3361   38.1773   30.0727 C.ar    1  UNL1       -0.0016
      5 C          20.9896   38.2908   29.8502 C.ar    1  UNL1        0.1025
      6 S          20.8614   38.0529   28.0881 S.2     1  UNL1       -0.0659
      7 C          22.5399   37.8199   27.7238 C.ar    1  UNL1        0.0849
      8 C          22.9115   38.3128   31.4589 C.3     1  UNL1        0.0320
      9 C          24.6024   37.7839   29.1318 C.2     1  UNL1        0.3426
     10 O          25.3215   38.7612   29.0519 O.2     1  UNL1       -0.2448
     11 O          25.1397   36.5684   29.3607 O.3     1  UNL1       -0.4454
     12 C          25.2627   35.1860   31.3617 C.3     1  UNL1        0.0513
     13 C          25.8480   36.3864   30.6150 C.3     1  UNL1        0.2089
     14 C          19.9227   38.5436   30.8173 C.2     1  UNL1        0.3470
     15 O          18.9660   37.7944   30.8775 O.2     1  UNL1       -0.2443
     16 O          19.9989   39.6079   31.6433 O.3     1  UNL1       -0.4451
     17 C          19.3121   39.5102   32.8926 C.3     1  UNL1        0.2089
     18 C          20.3125   39.6733   34.0386 C.3     1  UNL1        0.0513
     19 C          23.3080   38.6106   25.6162 C.2     1  UNL1        0.0747
     20 C          24.5607   38.9260   25.1847 C.2     1  UNL1        0.1067
     21 C          25.7139   38.1061   25.6041 C.ar    1  UNL1        0.1216
     22 N          25.7869   36.7971   25.7939 N.ar    1  UNL1       -0.2376
     23 C          26.9153   36.2215   26.1713 C.ar    1  UNL1        0.0881
     24 C          28.0268   36.9932   26.3802 C.ar    1  UNL1        0.0560
     25 S          27.3809   38.6164   25.9987 S.2     1  UNL1       -0.0652
     26 C          26.9753   34.7532   26.3728 C.ar    1  UNL1        0.0142
     27 C          27.0339   34.2257   27.6617 C.ar    1  UNL1        0.0009
     28 C          27.0852   32.8588   27.8433 C.ar    1  UNL1       -0.0042
     29 C          27.0883   32.0126   26.7487 C.ar    1  UNL1       -0.0222
     30 C          27.0358   32.5306   25.4673 C.ar    1  UNL1       -0.0085
     31 C          26.9793   33.8960   25.2739 C.ar    1  UNL1       -0.0207
     32 C          26.9225   34.4590   23.8772 C.3     1  UNL1        0.0311
     33 C          27.1499   30.5208   26.9533 C.3     1  UNL1        0.0310
     34 C          24.7596   40.0567   24.3288 C.1     1  UNL1        0.1038
     35 N          24.9173   40.9537   23.6499 N.1     1  UNL1       -0.1907
@<TRIPOS>BOND
     1    12    13    1
     2    13    11    1
     3    11     9    1
     4     9    10    2
     5     9     3    1
     6     3     7   ar
     7     3     4   ar
     8     4     5   ar
     9     4     8    1
    10     5     6   ar
    11     5    14    1
    12     6     7   ar
    13     7     1    1
    14     1    19    1
    15    19    20    2
    16    20    34    1
    17    20    21    1
    18    34    35    3
    19    21    25   ar
    20    21    22   ar
    21    22    23   ar
    22    23    24   ar
    23    23    26    1
    24    24    25   ar
    25    26    31   ar
    26    26    27   ar
    27    27    28   ar
    28    28    29   ar
    29    29    30   ar
    30    29    33    1
    31    30    31   ar
    32    31    32    1
    33    14    15    2
    34    14    16    1
    35    16    17    1
    36    17    18    1
    37     1     2    1
@<TRIPOS>MOLECULE
ZINC17263287
 37 40 0 0 0
SMALL
GASTEIGER

@<TRIPOS>ATOM
      1 C          23.3635   52.8726   25.8917 C.ar    1  UNL1        0.1143
      2 C          23.4362   52.0836   26.9954 C.ar    1  UNL1        0.0233
      3 C          22.1842   51.4404   27.1488 C.ar    1  UNL1        0.0174
      4 C          21.6796   50.5275   28.0842 C.ar    1  UNL1        0.0015
      5 C          20.3979   50.0749   27.9676 C.ar    1  UNL1        0.0001
      6 C          19.5854   50.5106   26.9280 C.ar    1  UNL1        0.0015
      7 C          20.0579   51.4075   25.9966 C.ar    1  UNL1        0.0172
      8 C          21.3626   51.8841   26.0943 C.ar    1  UNL1        0.0600
      9 N          22.1023   52.7625   25.3385 N.ar    1  UNL1       -0.3236
     10 C          26.9462   53.8230   25.7852 C.3     1  UNL1        0.1073
     11 C          27.9055   52.6076   25.8805 C.3     1  UNL1        0.1636
     12 O          27.5272   51.8268   24.7232 O.3     1  UNL1       -0.3399
     13 C          26.0992   51.9534   24.6221 C.3     1  UNL1        0.1554
     14 N          25.7000   53.2130   25.2708 N.am    1  UNL1       -0.2552
     15 C          24.4523   53.7126   25.3709 C.2     1  UNL1        0.2665
     16 O          24.2269   54.8585   25.0304 O.2     1  UNL1       -0.2683
     17 C          25.6872   51.9786   23.1488 C.3     1  UNL1        0.0510
     18 C          26.7344   53.3402   28.2274 C.3     1  UNL1        0.0018
     19 C          26.7172   54.4417   27.1657 C.3     1  UNL1        0.0225
     20 C          25.4252   50.7740   25.3263 C.3     1  UNL1        0.0468
     21 C          25.3955   49.5678   24.3855 C.3     1  UNL1        0.0042
     22 C          24.2386   48.6454   24.7754 C.3     1  UNL1        0.0001
     23 C          24.2429   48.4345   26.2907 C.3     1  UNL1        0.0000
     24 C          22.9135   49.2830   24.3528 C.3     1  UNL1        0.0000
     25 C          21.6325   53.4618   24.1400 C.3     1  UNL1        0.1075
     26 C          21.9414   52.6167   22.9026 C.3     1  UNL1        0.0404
     27 C          22.6630   53.4774   21.8632 C.3     1  UNL1        0.0049
     28 C          23.0015   52.6247   20.6383 C.3     1  UNL1        0.0192
     29 C          21.7056   52.0978   20.0141 C.3     1  UNL1        0.0954
     30 N          20.9362   51.3914   21.0472 N.3     1  UNL1       -0.1594
     31 C          20.6286   52.0917   22.3017 C.3     1  UNL1        0.0973
     32 S          20.4194   49.8376   20.7997 S.O2    1  UNL1        0.0421
     33 O          19.2907   49.9626   19.9454 O.2     1  UNL1       -0.1573
     34 O          20.2839   49.2886   22.1034 O.2     1  UNL1       -0.1573
     35 C          21.7828   49.0275   19.9191 C.3     1  UNL1        0.1459
     36 C          21.3231   47.6570   19.4177 C.3     1  UNL1        0.0270
     37 C          22.9698   48.8515   20.8682 C.3     1  UNL1        0.0270
@<TRIPOS>BOND
     1    18    19    1
     2    19    10    1
     3    10    14    1
     4    10    11    1
     5    11    12    1
     6    12    13    1
     7    13    14    1
     8    13    17    1
     9    13    20    1
    10    14    15   am
    11    15    16    2
    12    15     1    1
    13     1     9   ar
    14     1     2   ar
    15     2     3   ar
    16     3     8   ar
    17     3     4   ar
    18     4     5   ar
    19     5     6   ar
    20     6     7   ar
    21     7     8   ar
    22     8     9   ar
    23     9    25    1
    24    25    26    1
    25    26    31    1
    26    26    27    1
    27    27    28    1
    28    28    29    1
    29    29    30    1
    30    30    31    1
    31    30    32    1
    32    32    33    2
    33    32    34    2
    34    32    35    1
    35    35    36    1
    36    35    37    1
    37    20    21    1
    38    21    22    1
    39    22    23    1
    40    22    24    1
@<TRIPOS>MOLECULE
ZINC02185404
 40 43 0 0 0
SMALL
GASTEIGER

@<TRIPOS>ATOM
      1 C          24.7460   52.5296   25.0614 C.2     1  UNL1        0.0114
      2 C          25.3559   51.5918   24.2910 C.ar    1  UNL1        0.0884
      3 C          24.7760   50.4375   23.5905 C.ar    1  UNL1        0.2688
      4 O          23.5829   50.2036   23.6488 O.2     1  UNL1       -0.2664
      5 N          25.6003   49.6509   22.8855 N.ar    1  UNL1       -0.2689
      6 C          26.9399   49.9599   22.8530 C.ar    1  UNL1        0.1779
      7 N          27.8365   49.2649   22.1994 N.2     1  UNL1       -0.2267
      8 C          27.5781   48.1768   21.4852 C.2     1  UNL1        0.0658
      9 C          26.3021   47.6969   21.3867 C.2     1  UNL1        0.0917
     10 C          25.2044   48.4406   22.1120 C.3     1  UNL1        0.1427
     11 C          28.7012   47.4637   20.7773 C.3     1  UNL1        0.0521
     12 S          27.0798   51.4272   23.8548 S.2     1  UNL1       -0.0455
     13 C          21.0007   52.5144   24.8731 C.ar    1  UNL1        0.1719
     14 C          22.3252   52.6690   24.5145 C.ar    1  UNL1        0.0400
     15 C          23.3359   52.3681   25.4360 C.ar    1  UNL1        0.0036
     16 C          22.9971   51.9069   26.7143 C.ar    1  UNL1       -0.0007
     17 C          21.6730   51.7614   27.0646 C.ar    1  UNL1        0.0192
     18 C          20.6719   52.0597   26.1497 C.ar    1  UNL1        0.1687
     19 O          19.3680   51.9087   26.4996 O.3     1  UNL1       -0.4687
     20 C          18.7005   50.7376   26.0251 C.3     1  UNL1        0.2526
     21 O          20.0166   52.8062   23.9811 O.3     1  UNL1       -0.4724
     22 C          20.2983   51.9709   21.7309 C.3     1  UNL1        0.0512
     23 C          20.4249   53.1775   22.6630 C.3     1  UNL1        0.2057
     24 C          21.3098   51.2710   28.4426 C.3     1  UNL1        0.0555
     25 C          21.0233   49.7924   28.3902 C.2     1  UNL1       -0.0213
     26 C          20.0736   49.2825   29.1347 C.2     1  UNL1       -0.0046
     27 C          24.1756   48.8578   21.0929 C.ar    1  UNL1        0.0028
     28 C          22.9138   48.2937   21.1137 C.ar    1  UNL1       -0.0025
     29 C          21.9717   48.6726   20.1757 C.ar    1  UNL1       -0.0045
     30 C          22.2883   49.6230   19.2230 C.ar    1  UNL1       -0.0225
     31 C          23.5500   50.1874   19.2025 C.ar    1  UNL1       -0.0045
     32 C          24.4936   49.8051   20.1376 C.ar    1  UNL1       -0.0025
     33 C          21.2595   50.0402   18.2040 C.3     1  UNL1        0.0224
     34 C          19.8734   49.5815   18.6615 C.3     1  UNL1        0.0047
     35 C          21.2714   51.5635   18.0615 C.3     1  UNL1        0.0047
     36 C          26.0193   46.5456   20.6335 C.2     1  UNL1        0.3404
     37 O          25.9547   45.4597   21.1817 O.2     1  UNL1       -0.2451
     38 O          25.8189   46.6425   19.3012 O.3     1  UNL1       -0.4456
     39 C          24.6615   45.9939   18.7704 C.3     1  UNL1        0.2089
     40 C          24.1120   46.8098   17.5985 C.3     1  UNL1        0.0513
@<TRIPOS>BOND
     1    22    23    1
     2    23    21    1
     3    21    13    1
     4    13    18   ar
     5    13    14   ar
     6    14    15   ar
     7    15    16   ar
     8    15     1    1
     9    16    17   ar
    10    17    18   ar
    11    17    24    1
    12    18    19    1
    13    19    20    1
    14    24    25    1
    15    25    26    2
    16     1     2    2
    17     2    12   ar
    18     2     3   ar
    19     3     4    2
    20     3     5   ar
    21     5    10    1
    22     5     6   ar
    23     6     7    2
    24     6    12   ar
    25     7     8    1
    26     8     9    2
    27     8    11    1
    28     9    10    1
    29     9    36    1
    30    10    27    1
    31    27    32   ar
    32    27    28   ar
    33    28    29   ar
    34    29    30   ar
    35    30    31   ar
    36    30    33    1
    37    31    32   ar
    38    33    34    1
    39    33    35    1
    40    36    37    2
    41    36    38    1
    42    38    39    1
    43    39    40    1
@<TRIPOS>MOLECULE
ZINC10615369
 35 38 0 0 0
SMALL
GASTEIGER

@<TRIPOS>ATOM
      1 C          14.7378   37.0353   28.8148 C.3     1  UNL1        0.2930
      2 N          14.7652   38.4440   30.8478 N.am    1  UNL1       -0.2313
      3 C          15.3809   38.0617   29.7114 C.2     1  UNL1        0.2757
      4 O          16.4499   38.5474   29.4079 O.2     1  UNL1       -0.2704
      5 C          15.3582   39.3904   31.6745 C.ar    1  UNL1        0.1692
      6 N          16.4730   39.3055   32.3759 N.ar    1  UNL1       -0.2237
      7 C          16.8965   40.3166   33.1196 C.ar    1  UNL1        0.0897
      8 C          16.1648   41.4707   33.1618 C.ar    1  UNL1        0.0572
      9 S          14.8176   41.0490   32.0643 S.2     1  UNL1       -0.0506
     10 C          18.1524   40.1976   33.8995 C.ar    1  UNL1        0.0182
     11 C          18.8691   39.0021   33.8935 C.ar    1  UNL1        0.0015
     12 C          20.0398   38.8990   34.6169 C.ar    1  UNL1        0.0000
     13 C          20.4964   39.9754   35.3561 C.ar    1  UNL1        0.0000
     14 C          19.7865   41.1626   35.3699 C.ar    1  UNL1        0.0000
     15 C          18.6175   41.2791   34.6458 C.ar    1  UNL1        0.0015
     16 C          13.4711   37.8617   31.2114 C.3     1  UNL1        0.1265
     17 C          11.1524   38.5158   30.8151 C.2     1  UNL1       -0.0031
     18 C          12.3877   38.8937   31.0324 C.2     1  UNL1       -0.0043
     19 O          13.8372   37.6980   27.8885 O.3     1  UNL1       -0.4383
     20 C          12.8870   36.9422   27.3162 C.2     1  UNL1        0.3180
     21 O          13.1494   35.8242   26.9404 O.2     1  UNL1       -0.2501
     22 C          11.4931   37.4879   27.1423 C.3     1  UNL1        0.1194
     23 C          10.7687   36.6980   26.0505 C.3     1  UNL1        0.0997
     24 C          10.8088   37.4736   24.7589 C.ar    1  UNL1        0.2371
     25 N          10.6713   38.7691   24.6249 N.ar    1  UNL1       -0.1907
     26 C          10.7781   39.0105   23.2987 C.ar    1  UNL1        0.2033
     27 N          10.9723   37.8585   22.7111 N.ar    1  UNL1       -0.0560
     28 O          10.9972   36.9691   23.5355 O.2     1  UNL1       -0.3370
     29 C          10.6904   40.3345   22.6345 C.ar    1  UNL1        0.0392
     30 C          11.1122   40.4836   21.3148 C.ar    1  UNL1        0.0055
     31 C          11.0243   41.7153   20.6996 C.ar    1  UNL1        0.0297
     32 C          10.5274   42.8057   21.3955 C.ar    1  UNL1        0.1401
     33 C          10.1118   42.6629   22.7097 C.ar    1  UNL1        0.0297
     34 C          10.1913   41.4337   23.3307 C.ar    1  UNL1        0.0055
     35 F          10.4475   44.0112   20.7909 F       1  UNL1       -0.2042
@<TRIPOS>BOND
     1    17    18    2
     2    18    16    1
     3    16     2    1
     4     2     5    1
     5     2     3   am
     6     5     9   ar
     7     5     6   ar
     8     6     7   ar
     9     7     8   ar
    10     7    10    1
    11     8     9   ar
    12    10    15   ar
    13    10    11   ar
    14    11    12   ar
    15    12    13   ar
    16    13    14   ar
    17    14    15   ar
    18     3     4    2
    19     3     1    1
    20     1    19    1
    21    19    20    1
    22    20    21    2
    23    20    22    1
    24    22    23    1
    25    23    24    1
    26    24    28   ar
    27    24    25   ar
    28    25    26   ar
    29    26    27   ar
    30    26    29    1
    31    27    28   ar
    32    29    34   ar
    33    29    30   ar
    34    30    31   ar
    35    31    32   ar
    36    32    33   ar
    37    32    35    1
    38    33    34   ar
@<TRIPOS>MOLECULE
ZINC27200648
 37 41 0 0 0
SMALL
GASTEIGER

@<TRIPOS>ATOM
      1 C          25.1762   37.4373   29.9752 C.2     1  UNL1        0.3613
      2 O          25.5502   37.5102   31.1289 O.2     1  UNL1       -0.2431
      3 C          24.0674   38.2883   29.5041 C.ar    1  UNL1        0.1764
      4 C          24.3423   39.5992   28.8933 C.ar    1  UNL1        0.0304
      5 C          25.6303   40.0936   28.7186 C.ar    1  UNL1        0.0019
      6 C          25.8073   41.3287   28.1317 C.ar    1  UNL1        0.0001
      7 C          24.7170   42.0781   27.7095 C.ar    1  UNL1        0.0002
      8 C          23.4321   41.6041   27.8683 C.ar    1  UNL1        0.0048
      9 C          23.2325   40.3600   28.4582 C.ar    1  UNL1        0.0593
     10 C          21.8984   39.7797   28.6657 C.ar    1  UNL1        0.2766
     11 O          20.8975   40.3804   28.3203 O.2     1  UNL1       -0.2655
     12 N          21.8087   38.5659   29.2470 N.ar    1  UNL1       -0.2119
     13 N          22.8246   37.8887   29.6293 N.ar    1  UNL1       -0.1599
     14 C          20.4764   37.9919   29.4514 C.3     1  UNL1        0.1571
     15 C          19.8720   38.5603   30.7094 C.ar    1  UNL1        0.0022
     16 C          18.4999   38.5625   30.8773 C.ar    1  UNL1       -0.0023
     17 C          17.9458   39.0795   32.0333 C.ar    1  UNL1       -0.0003
     18 C          18.7634   39.6039   33.0170 C.ar    1  UNL1       -0.0000
     19 C          20.1352   39.6065   32.8469 C.ar    1  UNL1       -0.0003
     20 C          20.6896   39.0847   31.6931 C.ar    1  UNL1       -0.0023
     21 O          25.7744   36.5788   29.1259 O.3     1  UNL1       -0.4342
     22 C          27.1443   36.8746   28.7459 C.3     1  UNL1        0.2930
     23 N          27.6008   36.5523   26.3364 N.am    1  UNL1       -0.2740
     24 C          27.5361   36.0159   27.5711 C.2     1  UNL1        0.2705
     25 O          27.7933   34.8424   27.7367 O.2     1  UNL1       -0.2708
     26 C          28.2422   36.5660   23.9763 C.3     1  UNL1        0.0215
     27 C          27.8712   35.6959   25.1789 C.3     1  UNL1        0.0758
     28 C          26.6229   34.8752   24.8490 C.3     1  UNL1        0.0182
     29 C          26.7609   33.3515   24.8403 C.3     1  UNL1        0.0017
     30 C          26.6086   34.1133   23.5222 C.3     1  UNL1        0.0017
     31 C          27.4004   37.9917   26.1516 C.3     1  UNL1        0.1202
     32 C          25.9673   38.2540   25.7663 C.ar    1  UNL1       -0.0023
     33 C          25.6450   39.3751   25.0247 C.ar    1  UNL1       -0.0026
     34 C          24.3304   39.6157   24.6713 C.ar    1  UNL1       -0.0003
     35 C          23.3380   38.7351   25.0596 C.ar    1  UNL1       -0.0000
     36 C          23.6604   37.6136   25.8008 C.ar    1  UNL1       -0.0003
     37 C          24.9750   37.3732   26.1542 C.ar    1  UNL1       -0.0026
@<TRIPOS>BOND
     1    26    27    1
     2    27    28    1
     3    27    23    1
     4    28    30    1
     5    28    29    1
     6    29    30    1
     7    23    31    1
     8    23    24   am
     9    31    32    1
    10    32    37   ar
    11    32    33   ar
    12    33    34   ar
    13    34    35   ar
    14    35    36   ar
    15    36    37   ar
    16    24    25    2
    17    24    22    1
    18    22    21    1
    19    21     1    1
    20     1     2    2
    21     1     3    1
    22     3    13   ar
    23     3     4   ar
    24     4     9   ar
    25     4     5   ar
    26     5     6   ar
    27     6     7   ar
    28     7     8   ar
    29     8     9   ar
    30     9    10   ar
    31    10    11    2
    32    10    12   ar
    33    12    13   ar
    34    12    14    1
    35    14    15    1
    36    15    20   ar
    37    15    16   ar
    38    16    17   ar
    39    17    18   ar
    40    18    19   ar
    41    19    20   ar
@<TRIPOS>MOLECULE
ZINC03226584
 37 40 0 0 0
SMALL
GASTEIGER

@<TRIPOS>ATOM
      1 C          25.5550   39.5735   27.8528 C.ar    1  UNL1        0.0940
      2 C          24.7958   40.7534   27.9971 C.ar    1  UNL1        0.0208
      3 C          23.4003   40.6309   28.1312 C.ar    1  UNL1        0.0921
      4 C          22.8235   39.3457   28.1161 C.ar    1  UNL1        0.1167
      5 N          23.5752   38.2638   27.9832 N.ar    1  UNL1       -0.2383
      6 C          24.8912   38.3321   27.8488 C.ar    1  UNL1        0.0881
      7 C          25.6755   37.0853   27.6986 C.ar    1  UNL1        0.0179
      8 C          26.0231   36.6253   26.4283 C.ar    1  UNL1        0.0015
      9 C          26.7585   35.4655   26.2950 C.ar    1  UNL1        0.0000
     10 C          27.1417   34.7532   27.4176 C.ar    1  UNL1        0.0000
     11 C          26.7951   35.2010   28.6799 C.ar    1  UNL1        0.0000
     12 C          26.0648   36.3624   28.8265 C.ar    1  UNL1        0.0015
     13 C          25.4476   42.0817   28.0067 C.ar    1  UNL1        0.0202
     14 C          25.6554   42.7811   26.8121 C.ar    1  UNL1        0.0032
     15 C          26.2639   44.0221   26.8761 C.ar    1  UNL1        0.0207
     16 C          26.6547   44.5220   28.1056 C.ar    1  UNL1        0.0989
     17 N          26.4508   43.8378   29.2148 N.ar    1  UNL1       -0.2423
     18 C          25.8706   42.6555   29.2060 C.ar    1  UNL1        0.0989
     19 C          27.0160   39.6391   27.7083 C.2     1  UNL1        0.3427
     20 O          27.5116   39.7994   26.6099 O.2     1  UNL1       -0.2448
     21 O          27.8068   39.5216   28.7940 O.3     1  UNL1       -0.4454
     22 C          29.4293   37.7482   28.4033 C.3     1  UNL1        0.0513
     23 C          29.2146   39.2551   28.5584 C.3     1  UNL1        0.2089
     24 C          22.5792   41.7945   28.2805 C.1     1  UNL1        0.1025
     25 N          21.9279   42.7177   28.3989 N.1     1  UNL1       -0.1908
     26 S          21.0778   39.1752   28.2834 S.3     1  UNL1       -0.0824
     27 C          20.9896   38.4565   29.9422 C.3     1  UNL1        0.1728
     28 C          19.5527   38.4097   30.3938 C.2     1  UNL1        0.3288
     29 O          18.6616   38.5247   29.5860 O.2     1  UNL1       -0.2491
     30 O          19.2627   38.2403   31.6934 O.3     1  UNL1       -0.4429
     31 C          19.3795   39.4054   32.5521 C.3     1  UNL1        0.2351
     32 C          18.0043   39.8728   32.9541 C.ar    1  UNL1        0.0213
     33 C          16.8839   39.2701   32.4134 C.ar    1  UNL1       -0.0007
     34 C          15.6226   39.6986   32.7826 C.ar    1  UNL1       -0.0002
     35 C          15.4816   40.7301   33.6921 C.ar    1  UNL1       -0.0000
     36 C          16.6020   41.3365   34.2284 C.ar    1  UNL1       -0.0002
     37 C          17.8634   40.9046   33.8633 C.ar    1  UNL1       -0.0007
@<TRIPOS>BOND
     1    22    23    1
     2    23    21    1
     3    21    19    1
     4    19    20    2
     5    19     1    1
     6     1     6   ar
     7     1     2   ar
     8     2     3   ar
     9     2    13    1
    10     3     4   ar
    11     3    24    1
    12     4     5   ar
    13     4    26    1
    14     5     6   ar
    15     6     7    1
    16     7    12   ar
    17     7     8   ar
    18     8     9   ar
    19     9    10   ar
    20    10    11   ar
    21    11    12   ar
    22    26    27    1
    23    27    28    1
    24    28    29    2
    25    28    30    1
    26    30    31    1
    27    31    32    1
    28    32    37   ar
    29    32    33   ar
    30    33    34   ar
    31    34    35   ar
    32    35    36   ar
    33    36    37   ar
    34    24    25    3
    35    13    18   ar
    36    13    14   ar
    37    14    15   ar
    38    15    16   ar
    39    16    17   ar
    40    17    18   ar
@<TRIPOS>MOLECULE
ZINC14585417
 33 36 0 0 0
SMALL
GASTEIGER

@<TRIPOS>ATOM
      1 C          19.8745   38.7567   30.7750 C.ar    1  UNL1        0.1576
      2 C          18.6551   38.8427   31.3673 C.ar    1  UNL1        0.0274
      3 C          18.8920   39.3824   32.7056 C.ar    1  UNL1        0.0344
      4 C          18.0680   39.6940   33.7899 C.ar    1  UNL1        0.0028
      5 C          18.6182   40.1901   34.9380 C.ar    1  UNL1        0.0002
      6 C          19.9897   40.3818   35.0349 C.ar    1  UNL1        0.0031
      7 C          20.8202   40.0766   33.9785 C.ar    1  UNL1        0.0375
      8 C          20.2836   39.5702   32.8003 C.ar    1  UNL1        0.1451
      9 O          20.8269   39.1879   31.6282 O.2     1  UNL1       -0.4525
     10 C          20.1195   38.2679   29.4113 C.2     1  UNL1        0.1174
     11 O          20.0663   37.0758   29.1735 O.2     1  UNL1       -0.3097
     12 N          20.4033   39.1401   28.4237 N.am    1  UNL1       -0.5862
     13 C          24.2457   39.8600   27.3830 C.ar    1  UNL1        0.1582
     14 N          23.5899   38.8718   26.7921 N.ar    1  UNL1       -0.1363
     15 N          22.3911   38.6027   27.0772 N.ar    1  UNL1       -0.1652
     16 C          21.7145   39.2898   27.9833 C.ar    1  UNL1        0.0184
     17 S          22.9658   40.4723   28.4754 S.2     1  UNL1       -0.0641
     18 S          25.9012   40.4177   27.1534 S.3     1  UNL1       -0.0748
     19 C          25.8373   42.1759   27.5955 C.3     1  UNL1        0.1733
     20 C          26.1666   42.3387   29.0570 C.2     1  UNL1        0.3285
     21 O          26.8035   41.4874   29.6311 O.2     1  UNL1       -0.2491
     22 O          25.7525   43.4293   29.7208 O.3     1  UNL1       -0.4479
     23 C          24.8895   45.5235   28.8266 C.3     1  UNL1        0.0513
     24 C          24.5547   44.0856   29.2281 C.3     1  UNL1        0.2086
     25 C          17.3264   38.4647   30.7649 C.3     1  UNL1        0.0873
     26 S          16.1669   39.8484   30.9415 S.3     1  UNL1       -0.1305
     27 C          14.8931   39.2128   32.0659 C.3     1  UNL1        0.0841
     28 C          13.6800   38.8036   31.2708 C.ar    1  UNL1       -0.0113
     29 C          13.8313   38.0830   30.1009 C.ar    1  UNL1       -0.0034
     30 C          12.7182   37.7036   29.3741 C.ar    1  UNL1       -0.0003
     31 C          11.4546   38.0533   29.8120 C.ar    1  UNL1       -0.0000
     32 C          11.3037   38.7788   30.9790 C.ar    1  UNL1       -0.0003
     33 C          12.4164   39.1538   31.7085 C.ar    1  UNL1       -0.0034
@<TRIPOS>UNITY_ATOM_ATTR
12 1
charge -1
@<TRIPOS>BOND
     1    23    24    1
     2    24    22    1
     3    22    20    1
     4    20    21    2
     5    20    19    1
     6    19    18    1
     7    18    13    1
     8    13    17   ar
     9    13    14   ar
    10    14    15   ar
    11    15    16   ar
    12    16    17   ar
    13    16    12    1
    14    12    10    1
    15    10    11    2
    16    10     1    1
    17     1     9   ar
    18     1     2   ar
    19     2     3   ar
    20     2    25    1
    21     3     8   ar
    22     3     4   ar
    23     4     5   ar
    24     5     6   ar
    25     6     7   ar
    26     7     8   ar
    27     8     9   ar
    28    25    26    1
    29    26    27    1
    30    27    28    1
    31    28    33   ar
    32    28    29   ar
    33    29    30   ar
    34    30    31   ar
    35    31    32   ar
    36    32    33   ar
@<TRIPOS>MOLECULE
ZINC11867620
 37 38 0 0 0
SMALL
GASTEIGER

@<TRIPOS>ATOM
      1 C          27.5731   38.6572   28.3901 C.ar    1  UNL1        0.0128
      2 C          27.1197   39.3440   27.2851 C.ar    1  UNL1        0.0048
      3 C          25.7638   39.6601   27.1681 C.ar    1  UNL1        0.0692
      4 C          24.8693   39.2711   28.1761 C.ar    1  UNL1        0.1543
      5 C          25.3373   38.5860   29.2832 C.ar    1  UNL1        0.0749
      6 C          26.6860   38.2765   29.3897 C.ar    1  UNL1        0.1475
      7 C          29.3717   37.1565   27.5761 C.3     1  UNL1        0.0051
      8 C          29.0359   38.3171   28.5149 C.3     1  UNL1        0.0295
      9 C          25.2744   40.3948   25.9878 C.2     1  UNL1        0.1533
     10 C          25.3689   39.8386   24.7572 C.2     1  UNL1        0.0634
     11 C          24.9828   40.6090   23.5744 C.ar    1  UNL1        0.1134
     12 N          23.7874   40.7404   23.0052 N.ar    1  UNL1       -0.2425
     13 C          23.6228   41.4857   21.9371 C.ar    1  UNL1        0.0664
     14 C          24.6867   42.1288   21.3881 C.ar    1  UNL1        0.0516
     15 S          25.9920   41.6210   22.4999 S.2     1  UNL1       -0.0662
     16 C          22.2565   41.6229   21.3164 C.3     1  UNL1        0.0527
     17 O          24.7291   41.6287   26.1346 O.3     1  UNL1       -0.4240
     18 C          25.5110   42.5812   26.6681 C.2     1  UNL1        0.3204
     19 O          26.5494   42.8826   26.1287 O.2     1  UNL1       -0.2497
     20 C          25.0934   43.2743   27.9394 C.3     1  UNL1        0.0900
     21 C          25.4257   44.7645   27.8407 C.3     1  UNL1        0.0111
     22 C          23.5872   43.1002   28.1441 C.3     1  UNL1        0.0111
     23 C          25.8433   42.6618   29.1241 C.3     1  UNL1        0.0111
     24 O          27.1408   37.5990   30.4760 O.3     1  UNL1       -0.4243
     25 C          26.7181   36.3335   30.6262 C.2     1  UNL1        0.3204
     26 O          26.8015   35.5555   29.7055 O.2     1  UNL1       -0.2497
     27 C          26.1398   35.8835   31.9430 C.3     1  UNL1        0.0900
     28 C          26.0734   34.3553   31.9752 C.3     1  UNL1        0.0111
     29 C          27.0275   36.3796   33.0861 C.3     1  UNL1        0.0111
     30 C          24.7313   36.4587   32.1047 C.3     1  UNL1        0.0111
     31 O          23.5488   39.5697   28.0678 O.3     1  UNL1       -0.4239
     32 C          22.7125   38.5510   27.8109 C.2     1  UNL1        0.3204
     33 O          22.9032   37.8396   26.8531 O.2     1  UNL1       -0.2497
     34 C          21.5361   38.2950   28.7174 C.3     1  UNL1        0.0900
     35 C          20.9310   36.9276   28.3937 C.3     1  UNL1        0.0111
     36 C          22.0013   38.3149   30.1748 C.3     1  UNL1        0.0111
     37 C          20.4815   39.3828   28.5038 C.3     1  UNL1        0.0111
@<TRIPOS>BOND
     1     7     8    1
     2     8     1    1
     3     1     6   ar
     4     1     2   ar
     5     2     3   ar
     6     3     4   ar
     7     3     9    1
     8     4     5   ar
     9     4    31    1
    10     5     6   ar
    11     6    24    1
    12    24    25    1
    13    25    26    2
    14    25    27    1
    15    27    28    1
    16    27    29    1
    17    27    30    1
    18    31    32    1
    19    32    33    2
    20    32    34    1
    21    34    35    1
    22    34    36    1
    23    34    37    1
    24     9    10    2
    25     9    17    1
    26    10    11    1
    27    11    15   ar
    28    11    12   ar
    29    12    13   ar
    30    13    14   ar
    31    13    16    1
    32    14    15   ar
    33    17    18    1
    34    18    19    2
    35    18    20    1
    36    20    21    1
    37    20    22    1
    38    20    23    1
@<TRIPOS>MOLECULE
ZINC02962158
 34 37 0 0 0
SMALL
GASTEIGER

@<TRIPOS>ATOM
      1 N          21.0548   38.6462   30.7438 N.ar    1  UNL1       -0.2751
      2 C          20.4431   39.0443   31.8840 C.ar    1  UNL1        0.2697
      3 O          21.0938   39.3552   32.8680 O.2     1  UNL1       -0.2663
      4 C          19.0457   39.0944   31.9024 C.ar    1  UNL1        0.1033
      5 C          18.2922   38.7358   30.7862 C.ar    1  UNL1        0.0944
      6 C          16.8280   38.8260   30.9366 C.ar    1  UNL1        0.0244
      7 C          15.8443   38.5229   29.9671 C.ar    1  UNL1        0.0020
      8 C          14.5216   38.6553   30.2543 C.ar    1  UNL1        0.0001
      9 C          14.0911   39.0896   31.5006 C.ar    1  UNL1        0.0005
     10 C          15.0221   39.3950   32.4729 C.ar    1  UNL1        0.0065
     11 C          16.3679   39.2638   32.1910 C.ar    1  UNL1        0.0311
     12 S          17.8477   39.5427   33.1297 S.2     1  UNL1       -0.0807
     13 N          18.9864   38.3424   29.6824 N.ar    1  UNL1       -0.2218
     14 C          20.2931   38.3012   29.6654 C.ar    1  UNL1        0.1739
     15 C          22.5165   38.5807   30.6705 C.3     1  UNL1        0.1162
     16 C          22.9432   37.1758   30.2404 C.3     1  UNL1        0.0859
     17 C          24.4430   37.0004   30.4871 C.3     1  UNL1        0.2371
     18 O          24.6521   35.9283   31.4084 O.3     1  UNL1       -0.3305
     19 C          25.6953   35.2032   33.4642 C.3     1  UNL1        0.0347
     20 C          25.0113   36.3544   32.7242 C.3     1  UNL1        0.1449
     21 O          25.0970   36.7015   29.2522 O.3     1  UNL1       -0.3305
     22 C          26.2855   37.4618   29.0251 C.3     1  UNL1        0.1449
     23 C          26.1295   38.8504   29.6480 C.3     1  UNL1        0.0347
     24 S          21.1033   37.7786   28.1905 S.3     1  UNL1       -0.0689
     25 C          21.3406   39.3787   27.3785 C.3     1  UNL1        0.1339
     26 C          22.7864   39.7891   27.4901 C.2     1  UNL1        0.1843
     27 O          23.6631   39.0130   27.1746 O.2     1  UNL1       -0.2904
     28 C          23.1338   41.1304   27.9815 C.ar    1  UNL1        0.0357
     29 C          24.4610   41.5723   27.9395 C.ar    1  UNL1        0.0052
     30 C          24.7788   42.8325   28.3961 C.ar    1  UNL1        0.0297
     31 C          23.7887   43.6584   28.9075 C.ar    1  UNL1        0.1401
     32 C          22.4721   43.2244   28.9574 C.ar    1  UNL1        0.0297
     33 C          22.1398   41.9687   28.4987 C.ar    1  UNL1        0.0052
     34 F          24.1079   44.8912   29.3586 F       1  UNL1       -0.2042
@<TRIPOS>BOND
     1    19    20    1
     2    20    18    1
     3    18    17    1
     4    17    16    1
     5    17    21    1
     6    16    15    1
     7    15     1    1
     8     1    14   ar
     9     1     2   ar
    10     2     3    2
    11     2     4   ar
    12     4    12   ar
    13     4     5   ar
    14     5     6   ar
    15     5    13   ar
    16     6    11   ar
    17     6     7   ar
    18     7     8   ar
    19     8     9   ar
    20     9    10   ar
    21    10    11   ar
    22    11    12   ar
    23    13    14   ar
    24    14    24    1
    25    24    25    1
    26    25    26    1
    27    26    27    2
    28    26    28    1
    29    28    33   ar
    30    28    29   ar
    31    29    30   ar
    32    30    31   ar
    33    31    32   ar
    34    31    34    1
    35    32    33   ar
    36    21    22    1
    37    22    23    1
@<TRIPOS>MOLECULE
ZINC04213734
 38 41 0 0 0
SMALL
GASTEIGER

@<TRIPOS>ATOM
      1 C          27.6029   36.5697   29.7617 C.3     1  UNL1        0.1895
      2 C          28.8373   36.6610   28.8256 C.3     1  UNL1        0.0438
      3 C          28.5157   37.7651   27.7819 C.3     1  UNL1        0.0041
      4 C          27.4780   38.6304   28.5057 C.3     1  UNL1        0.0050
      5 C          26.5899   37.5536   29.1855 C.3     1  UNL1        0.0415
      6 C          25.7021   38.2721   30.1837 C.3     1  UNL1        0.0213
      7 C          24.7743   39.1981   29.3811 C.3     1  UNL1        0.0944
      8 C          25.5640   40.1808   28.5218 C.3     1  UNL1        0.0875
      9 C          26.5723   39.4594   27.6132 C.3     1  UNL1        0.0162
     10 C          27.4015   40.4917   26.8466 C.3     1  UNL1        0.0056
     11 C          26.4889   41.2972   25.9162 C.3     1  UNL1        0.0225
     12 C          25.3746   41.8984   26.7522 C.2     1  UNL1       -0.0367
     13 C          25.1420   43.2010   26.6697 C.2     1  UNL1        0.0339
     14 C          24.0927   43.8267   27.4892 C.2     1  UNL1        0.1948
     15 O          23.8547   45.0162   27.3930 O.2     1  UNL1       -0.2866
     16 C          23.3372   42.9814   28.4290 C.2     1  UNL1        0.0378
     17 C          23.5827   41.6820   28.4904 C.2     1  UNL1       -0.0185
     18 C          24.5942   40.9828   27.6485 C.3     1  UNL1        0.0478
     19 C          23.8539   39.9790   26.7625 C.3     1  UNL1        0.0097
     20 CL         26.4505   41.3089   29.6137 Cl      1  UNL1       -0.1143
     21 CL         23.7235   38.1954   28.3128 Cl      1  UNL1       -0.1137
     22 C          25.7269   36.8534   28.1340 C.3     1  UNL1        0.0039
     23 C          30.0828   37.0436   29.6279 C.3     1  UNL1        0.0040
     24 C          27.0375   35.1728   29.7520 C.2     1  UNL1        0.2303
     25 O          25.9756   34.9475   30.2809 O.2     1  UNL1       -0.2885
     26 C          27.7974   34.0572   29.0820 C.3     1  UNL1        0.2756
     27 O          26.8757   33.2328   28.3209 O.3     1  UNL1       -0.4402
     28 C          27.2029   32.9709   27.0457 C.2     1  UNL1        0.3174
     29 O          26.9430   31.8936   26.5643 O.2     1  UNL1       -0.2501
     30 C          27.8943   34.0206   26.2143 C.3     1  UNL1        0.1096
     31 C          26.7925   34.2935   23.9886 C.3     1  UNL1        0.0006
     32 C          26.8515   34.8152   25.4257 C.3     1  UNL1        0.0116
     33 O          27.9674   36.9565   31.1129 O.3     1  UNL1       -0.4485
     34 C          27.9054   36.0044   32.0571 C.2     1  UNL1        0.3171
     35 O          28.7225   35.1144   32.0721 O.2     1  UNL1       -0.2501
     36 C          26.8167   36.0455   33.0983 C.3     1  UNL1        0.1096
     37 C          26.6423   34.6535   33.7090 C.3     1  UNL1        0.0116
     38 C          27.2241   34.6410   35.1241 C.3     1  UNL1        0.0006
@<TRIPOS>BOND
     1    31    32    1
     2    32    30    1
     3    30    28    1
     4    28    29    2
     5    28    27    1
     6    27    26    1
     7    26    24    1
     8    24    25    2
     9    24     1    1
    10     1     5    1
    11     1     2    1
    12     1    33    1
    13     2     3    1
    14     2    23    1
    15     3     4    1
    16     4     9    1
    17     4     5    1
    18     5     6    1
    19     5    22    1
    20     6     7    1
    21     7     8    1
    22     7    21    1
    23     8    18    1
    24     8     9    1
    25     8    20    1
    26     9    10    1
    27    10    11    1
    28    11    12    1
    29    12    18    1
    30    12    13    2
    31    13    14    1
    32    14    15    2
    33    14    16    1
    34    16    17    2
    35    17    18    1
    36    18    19    1
    37    33    34    1
    38    34    35    2
    39    34    36    1
    40    36    37    1
    41    37    38    1
@<TRIPOS>MOLECULE
ZINC08386048
 43 47 0 0 0
SMALL
GASTEIGER

@<TRIPOS>ATOM
      1 C          25.2943   38.0532   29.8977 C.3     1  UNL1        0.0000
      2 C          24.2170   37.5321   30.8852 C.3     1  UNL1        0.0000
      3 C          22.9878   37.1486   30.0135 C.3     1  UNL1        0.0001
      4 C          23.1403   38.1073   28.8183 C.3     1  UNL1        0.0036
      5 C          24.6523   37.9454   28.5141 C.3     1  UNL1        0.0001
      6 C          25.0562   38.9609   27.4721 C.3     1  UNL1        0.0000
      7 C          26.5566   38.9105   27.1893 C.3     1  UNL1        0.0000
      8 C          26.9233   39.9540   26.1254 C.3     1  UNL1        0.0000
      9 C          26.1209   39.6846   24.8567 C.3     1  UNL1        0.0000
     10 C          26.6016   40.5436   23.6854 C.3     1  UNL1        0.0002
     11 C          28.0507   40.1326   23.3616 C.3     1  UNL1        0.0037
     12 C          28.5408   40.9166   22.1482 C.3     1  UNL1        0.0436
     13 C          27.7002   40.5857   20.9224 C.3     1  UNL1        0.1686
     14 C          26.2076   40.8123   21.1579 C.3     1  UNL1        0.0369
     15 C          25.7420   40.2245   22.4692 C.3     1  UNL1        0.0034
     16 C          24.2724   40.5096   22.7705 C.3     1  UNL1        0.0001
     17 C          23.8169   39.5262   23.8610 C.3     1  UNL1        0.0000
     18 C          24.6281   39.7551   25.1349 C.3     1  UNL1        0.0000
     19 C          24.2620   38.6933   26.1874 C.3     1  UNL1        0.0000
     20 C          22.7573   38.6917   26.4415 C.3     1  UNL1        0.0000
     21 C          22.3652   37.7310   27.5745 C.3     1  UNL1        0.0001
     22 C          24.6250   37.3064   25.6412 C.3     1  UNL1        0.0000
     23 C          24.2252   41.1236   25.7085 C.3     1  UNL1        0.0000
     24 C          25.8736   42.2970   21.0193 C.3     1  UNL1        0.0036
     25 C          25.4711   40.0783   20.0089 C.3     1  UNL1        0.0036
     26 C          26.6057   42.0231   24.0471 C.3     1  UNL1        0.0000
     27 C          26.3174   35.9104   29.1153 C.3     1  UNL1        0.0000
     28 C          26.5332   37.1555   29.9778 C.3     1  UNL1        0.0000
     29 C          26.7657   36.7357   31.4306 C.3     1  UNL1        0.0000
     30 O          28.1339   41.4112   19.8038 O.3     1  UNL1       -0.4523
     31 C          28.9424   40.8362   18.8998 C.2     1  UNL1        0.3174
     32 O          29.7478   41.5057   18.2972 O.2     1  UNL1       -0.2501
     33 C          28.8496   39.3545   18.6405 C.3     1  UNL1        0.1212
     34 C          22.7922   39.5246   29.2743 C.3     1  UNL1        0.0474
     35 C          21.2767   39.7237   29.2086 C.3     1  UNL1        0.2084
     36 O          20.7135   39.5955   30.5408 O.3     1  UNL1       -0.4485
     37 C          19.6780   38.7538   30.6862 C.2     1  UNL1        0.3174
     38 O          19.4023   37.9769   29.8028 O.2     1  UNL1       -0.2501
     39 C          18.8594   38.7776   31.9513 C.3     1  UNL1        0.1154
     40 C          19.5047   39.7317   32.9583 C.3     1  UNL1        0.0534
     41 C          18.4283   40.4529   33.7280 C.2     1  UNL1        0.0509
     42 O          17.3951   39.8868   33.9964 O.co2   1  UNL1       -0.5492
     43 O          18.6173   41.7241   34.1154 O.co2   1  UNL1       -0.5492
@<TRIPOS>UNITY_ATOM_ATTR
43 1
charge -1
@<TRIPOS>BOND
     1    27    28    1
     2    28    29    1
     3    28     1    1
     4     1     5    1
     5     1     2    1
     6     2     3    1
     7     3     4    1
     8     4    21    1
     9     4     5    1
    10     4    34    1
    11     5     6    1
    12     6    19    1
    13     6     7    1
    14     7     8    1
    15     8     9    1
    16     9    18    1
    17     9    10    1
    18    10    15    1
    19    10    11    1
    20    10    26    1
    21    11    12    1
    22    12    13    1
    23    13    14    1
    24    13    30    1
    25    14    15    1
    26    14    24    1
    27    14    25    1
    28    15    16    1
    29    16    17    1
    30    17    18    1
    31    18    19    1
    32    18    23    1
    33    19    20    1
    34    19    22    1
    35    20    21    1
    36    30    31    1
    37    31    32    2
    38    31    33    1
    39    34    35    1
    40    35    36    1
    41    36    37    1
    42    37    38    2
    43    37    39    1
    44    39    40    1
    45    40    41    1
    46    41    42   ar
    47    41    43   ar
@<TRIPOS>MOLECULE
ZINC23623887
 35 38 0 0 0
SMALL
GASTEIGER

@<TRIPOS>ATOM
      1 N          24.8972   40.1337   27.6188 N.ar    1  UNL1       -0.2807
      2 C          25.3834   41.3938   27.8730 C.ar    1  UNL1        0.0961
      3 C          24.8029   42.6156   27.5791 C.2     1  UNL1        0.0614
      4 S          26.9457   41.0715   28.6748 S.2     1  UNL1       -0.0648
      5 C          26.8819   39.2860   28.6362 C.ar    1  UNL1        0.0870
      6 C          27.7849   38.3797   29.0972 C.2     1  UNL1        0.0128
      7 C          25.5884   39.0603   27.9632 C.ar    1  UNL1        0.2676
      8 O          25.1746   37.9378   27.7394 O.2     1  UNL1       -0.2664
      9 C          27.4512   36.9534   29.1073 C.ar    1  UNL1        0.0183
     10 C          27.7519   36.1451   28.0131 C.ar    1  UNL1        0.0015
     11 C          27.4351   34.7954   28.0244 C.ar    1  UNL1        0.0001
     12 C          26.8188   34.2122   29.0907 C.ar    1  UNL1        0.0015
     13 C          26.4916   34.9654   30.2294 C.ar    1  UNL1        0.0177
     14 C          26.7941   36.3480   30.2676 C.ar    1  UNL1        0.0813
     15 N          26.4823   37.0708   31.3413 N.ar    1  UNL1       -0.2438
     16 C          25.8934   36.5274   32.3815 C.ar    1  UNL1        0.0988
     17 C          25.5670   35.1744   32.4123 C.ar    1  UNL1        0.0207
     18 C          25.8599   34.3773   31.3418 C.ar    1  UNL1        0.0031
     19 C          25.4555   43.7944   27.9183 C.2     1  UNL1        0.1743
     20 O          26.6032   43.9800   27.5579 O.2     1  UNL1       -0.2913
     21 C          24.7425   44.8431   28.7324 C.3     1  UNL1        0.0556
     22 C          23.2412   44.5486   28.7411 C.3     1  UNL1        0.0077
     23 C          25.2742   44.8238   30.1669 C.3     1  UNL1        0.0077
     24 C          24.9883   46.2216   28.1158 C.3     1  UNL1        0.0077
     25 C          23.6016   39.9779   26.9530 C.3     1  UNL1        0.1946
     26 N          21.7431   39.3727   28.4689 N.am    1  UNL1       -0.2780
     27 C          22.4972   40.3409   27.9118 C.2     1  UNL1        0.2488
     28 O          22.2870   41.5044   28.1823 O.2     1  UNL1       -0.2728
     29 C          21.9969   37.9674   28.1422 C.3     1  UNL1        0.0935
     30 C          22.0613   37.3356   25.7257 C.3     1  UNL1        0.0018
     31 C          21.1502   37.5637   26.9335 C.3     1  UNL1        0.0215
     32 C          20.6694   39.7257   29.4011 C.3     1  UNL1        0.0934
     33 C          20.5982   38.6805   30.5163 C.3     1  UNL1        0.0199
     34 C          19.2392   38.4460   31.1790 C.3     1  UNL1        0.0018
     35 C          20.3443   39.1821   31.9393 C.3     1  UNL1        0.0018
@<TRIPOS>BOND
     1    30    31    1
     2    31    29    1
     3    29    26    1
     4    26    32    1
     5    26    27   am
     6    32    33    1
     7    33    35    1
     8    33    34    1
     9    34    35    1
    10    27    28    2
    11    27    25    1
    12    25     1    1
    13     1     7   ar
    14     1     2   ar
    15     2     3    2
    16     2     4   ar
    17     3    19    1
    18    19    20    2
    19    19    21    1
    20    21    22    1
    21    21    23    1
    22    21    24    1
    23     4     5   ar
    24     5     6    2
    25     5     7   ar
    26     6     9    1
    27     9    14   ar
    28     9    10   ar
    29    10    11   ar
    30    11    12   ar
    31    12    13   ar
    32    13    18   ar
    33    13    14   ar
    34    14    15   ar
    35    15    16   ar
    36    16    17   ar
    37    17    18   ar
    38     7     8    2
@<TRIPOS>MOLECULE
ZINC23316806
 35 37 0 0 0
SMALL
GASTEIGER

@<TRIPOS>ATOM
      1 C          24.7037   37.9604   30.1563 C.2     1  UNL1        0.0834
      2 C          23.4709   37.4216   30.0015 C.2     1  UNL1        0.0263
      3 C          22.2980   38.2938   29.8942 C.ar    1  UNL1        0.0900
      4 C          22.1232   39.1101   28.7909 C.ar    1  UNL1        0.0573
      5 S          20.6196   39.8912   29.1703 S.2     1  UNL1       -0.0503
      6 C          20.3264   39.1051   30.7460 C.ar    1  UNL1        0.1727
      7 N          21.3777   38.3211   30.8614 N.ar    1  UNL1       -0.2234
      8 N          19.2628   39.2763   31.6240 N.am    1  UNL1       -0.2147
      9 C          18.0153   38.9343   31.2461 C.2     1  UNL1        0.2351
     10 O          17.8207   38.4770   30.1397 O.2     1  UNL1       -0.2741
     11 C          16.8619   39.1199   32.1982 C.3     1  UNL1        0.0956
     12 C          19.4878   39.8048   32.9028 C.ar    1  UNL1        0.0873
     13 C          19.4962   41.1793   33.0959 C.ar    1  UNL1        0.0176
     14 C          19.7182   41.6973   34.3570 C.ar    1  UNL1        0.0014
     15 C          19.9314   40.8488   35.4279 C.ar    1  UNL1        0.0024
     16 C          19.9233   39.4789   35.2410 C.ar    1  UNL1        0.0309
     17 C          19.6971   38.9532   33.9818 C.ar    1  UNL1        0.1541
     18 F          19.6837   37.6146   33.7998 F       1  UNL1       -0.2028
     19 C          25.8352   37.1189   30.2597 C.2     1  UNL1        0.3418
     20 O          26.4285   36.7708   29.2558 O.2     1  UNL1       -0.2449
     21 O          26.2574   36.7016   31.4720 O.3     1  UNL1       -0.4412
     22 C          25.4909   35.3214   33.3018 C.3     1  UNL1        0.0560
     23 C          25.9439   35.3571   31.8408 C.3     1  UNL1        0.2300
     24 C          27.1663   34.4920   31.6725 C.2     1  UNL1        0.2128
     25 O          28.2140   34.8158   32.1900 O.2     1  UNL1       -0.2875
     26 C          27.0885   33.2542   30.8803 C.ar    1  UNL1        0.0383
     27 C          27.1573   33.3076   29.4844 C.ar    1  UNL1        0.0026
     28 C          27.0894   32.1430   28.7495 C.ar    1  UNL1       -0.0042
     29 C          26.9416   30.9244   29.3890 C.ar    1  UNL1       -0.0228
     30 C          26.8671   30.8639   30.7697 C.ar    1  UNL1       -0.0042
     31 C          26.9397   32.0190   31.5190 C.ar    1  UNL1        0.0026
     32 C          26.8620   29.6569   28.5778 C.3     1  UNL1        0.0189
     33 C          26.6916   30.0081   27.0984 C.3     1  UNL1        0.0044
     34 C          28.1481   28.8497   28.7654 C.3     1  UNL1        0.0044
     35 C          25.6655   28.8261   29.0459 C.3     1  UNL1        0.0044
@<TRIPOS>BOND
     1    22    23    1
     2    23    24    1
     3    23    21    1
     4    24    25    2
     5    24    26    1
     6    26    31   ar
     7    26    27   ar
     8    27    28   ar
     9    28    29   ar
    10    29    30   ar
    11    29    32    1
    12    30    31   ar
    13    32    33    1
    14    32    34    1
    15    32    35    1
    16    21    19    1
    17    19    20    2
    18    19     1    1
    19     1     2    2
    20     2     3    1
    21     3     7   ar
    22     3     4   ar
    23     4     5   ar
    24     5     6   ar
    25     6     7   ar
    26     6     8    1
    27     8    12    1
    28     8     9   am
    29    12    17   ar
    30    12    13   ar
    31    13    14   ar
    32    14    15   ar
    33    15    16   ar
    34    16    17   ar
    35    17    18    1
    36     9    10    2
    37     9    11    1
@<TRIPOS>MOLECULE
ZINC05014619
 41 45 0 0 0
SMALL
GASTEIGER

@<TRIPOS>ATOM
      1 C          22.9456   38.2087   28.7290 C.3     1  UNL1        0.2067
      2 C          24.1786   38.0661   29.6251 C.3     1  UNL1        0.2497
      3 C          25.4327   38.4008   28.8116 C.3     1  UNL1        0.2543
      4 C          25.2926   39.8133   28.2360 C.3     1  UNL1        0.2419
      5 C          24.0165   39.8884   27.3935 C.3     1  UNL1        0.1907
      6 O          22.8921   39.5359   28.2018 O.3     1  UNL1       -0.3375
      7 S          21.4497   37.8833   29.7022 S.3     1  UNL1       -0.1035
      8 C          20.9375   39.5241   30.2817 C.3     1  UNL1        0.0861
      9 C          19.0535   39.1618   34.0983 C.ar    1  UNL1       -0.0000
     10 C          18.3004   39.0620   32.9435 C.ar    1  UNL1       -0.0003
     11 C          18.9099   39.1796   31.7084 C.ar    1  UNL1       -0.0034
     12 C          20.2728   39.3964   31.6281 C.ar    1  UNL1       -0.0113
     13 C          21.0268   39.4905   32.7829 C.ar    1  UNL1       -0.0034
     14 C          20.4164   39.3782   34.0180 C.ar    1  UNL1       -0.0003
     15 O          25.2146   40.7743   29.3217 O.3     1  UNL1       -0.4426
     16 C          26.0303   41.8440   29.2515 C.2     1  UNL1        0.3413
     17 O          27.2093   41.7275   29.5198 O.2     1  UNL1       -0.2449
     18 C          25.4912   43.1588   28.8480 C.ar    1  UNL1        0.0756
     19 C          26.3390   44.1295   28.3108 C.ar    1  UNL1        0.0064
     20 C          25.8281   45.3532   27.9311 C.ar    1  UNL1        0.0002
     21 C          24.4807   45.6240   28.0918 C.ar    1  UNL1        0.0000
     22 C          23.6359   44.6687   28.6289 C.ar    1  UNL1        0.0002
     23 C          24.1325   43.4387   29.0074 C.ar    1  UNL1        0.0064
     24 O          26.6005   38.3407   29.6725 O.3     1  UNL1       -0.4414
     25 C          27.7448   37.8931   29.1206 C.2     1  UNL1        0.3413
     26 O          28.6298   38.6759   28.8382 O.2     1  UNL1       -0.2449
     27 C          27.9236   36.4503   28.8588 C.ar    1  UNL1        0.0756
     28 C          26.9467   35.7380   28.1603 C.ar    1  UNL1        0.0064
     29 C          27.1221   34.3918   27.9155 C.ar    1  UNL1        0.0002
     30 C          28.2581   33.7451   28.3693 C.ar    1  UNL1        0.0000
     31 C          29.2279   34.4438   29.0663 C.ar    1  UNL1        0.0002
     32 C          29.0675   35.7914   29.3138 C.ar    1  UNL1        0.0064
     33 O          24.2675   36.7021   30.1147 O.3     1  UNL1       -0.4418
     34 C          24.6342   36.5366   31.4004 C.2     1  UNL1        0.3413
     35 O          24.0600   37.1476   32.2793 O.2     1  UNL1       -0.2449
     36 C          25.7347   35.6119   31.7413 C.ar    1  UNL1        0.0756
     37 C          26.8454   36.0745   32.4499 C.ar    1  UNL1        0.0064
     38 C          27.8674   35.2046   32.7687 C.ar    1  UNL1        0.0002
     39 C          27.7983   33.8787   32.3793 C.ar    1  UNL1        0.0000
     40 C          26.7028   33.4146   31.6729 C.ar    1  UNL1        0.0002
     41 C          25.6715   34.2726   31.3516 C.ar    1  UNL1        0.0064
@<TRIPOS>BOND
     1     9    14   ar
     2     9    10   ar
     3    10    11   ar
     4    11    12   ar
     5    12    13   ar
     6    12     8    1
     7    13    14   ar
     8     8     7    1
     9     7     1    1
    10     1     6    1
    11     1     2    1
    12     2     3    1
    13     2    33    1
    14     3     4    1
    15     3    24    1
    16     4     5    1
    17     4    15    1
    18     5     6    1
    19    15    16    1
    20    16    17    2
    21    16    18    1
    22    18    23   ar
    23    18    19   ar
    24    19    20   ar
    25    20    21   ar
    26    21    22   ar
    27    22    23   ar
    28    24    25    1
    29    25    26    2
    30    25    27    1
    31    27    32   ar
    32    27    28   ar
    33    28    29   ar
    34    29    30   ar
    35    30    31   ar
    36    31    32   ar
    37    33    34    1
    38    34    35    2
    39    34    36    1
    40    36    41   ar
    41    36    37   ar
    42    37    38   ar
    43    38    39   ar
    44    39    40   ar
    45    40    41   ar
@<TRIPOS>MOLECULE
ZINC29646870
 33 35 0 0 0
SMALL
GASTEIGER

@<TRIPOS>ATOM
      1 N          13.9097   38.1426   29.8996 N.am    1  UNL1       -0.2339
      2 C          14.0910   37.9095   28.5846 C.2     1  UNL1        0.2724
      3 O          15.1928   38.0486   28.0886 O.2     1  UNL1       -0.2678
      4 C          14.9470   38.6470   30.6617 C.ar    1  UNL1        0.1689
      5 N          16.2421   38.3842   30.5756 N.ar    1  UNL1       -0.2279
      6 C          17.1102   38.9497   31.3726 C.ar    1  UNL1        0.0736
      7 C          16.6294   39.8333   32.3299 C.ar    1  UNL1        0.1211
      8 S          14.8783   39.7783   31.9772 S.2     1  UNL1       -0.0450
      9 C          18.5822   38.6473   31.2609 C.3     1  UNL1        0.0529
     10 C          17.3541   40.5962   33.3438 C.2     1  UNL1        0.3486
     11 O          17.1753   41.7952   33.4462 O.2     1  UNL1       -0.2443
     12 O          18.2218   39.9708   34.1664 O.3     1  UNL1       -0.4451
     13 C          19.1735   40.7894   34.8491 C.3     1  UNL1        0.2089
     14 C          20.4071   39.9544   35.1982 C.3     1  UNL1        0.0513
     15 C          12.9556   37.4864   27.7486 C.ar    1  UNL1        0.1418
     16 C          12.5773   36.1695   27.6761 C.ar    1  UNL1        0.0604
     17 S          11.2321   36.2554   26.5837 S.2     1  UNL1       -0.0665
     18 C          11.2517   37.9660   26.2999 C.ar    1  UNL1        0.1323
     19 N          12.2530   38.3698   27.0379 N.ar    1  UNL1       -0.2344
     20 C          10.3377   38.7848   25.4251 C.3     1  UNL1        0.2574
     21 O          10.9459   38.9735   24.1458 O.3     1  UNL1       -0.4684
     22 C          10.6926   40.1476   23.5092 C.ar    1  UNL1        0.1393
     23 C          11.1093   40.3308   22.1990 C.ar    1  UNL1        0.0392
     24 C          10.8458   41.5221   21.5511 C.ar    1  UNL1        0.0327
     25 C          10.1764   42.5374   22.2130 C.ar    1  UNL1        0.1403
     26 C           9.7652   42.3582   23.5229 C.ar    1  UNL1        0.0327
     27 C          10.0220   41.1655   24.1711 C.ar    1  UNL1        0.0392
     28 F           9.9238   43.7040   21.5800 F       1  UNL1       -0.2042
     29 C          12.6133   37.8617   30.5214 C.3     1  UNL1        0.1005
     30 C          12.0300   39.1561   31.0917 C.3     1  UNL1        0.0220
     31 C          10.7388   39.5046   30.3485 C.3     1  UNL1        0.0018
     32 C           9.3650   41.4578   29.6135 C.3     1  UNL1        0.0000
     33 C          10.3299   40.9407   30.6824 C.3     1  UNL1        0.0001
@<TRIPOS>BOND
     1    32    33    1
     2    33    31    1
     3    31    30    1
     4    30    29    1
     5    29     1    1
     6     1     4    1
     7     1     2   am
     8     4     8   ar
     9     4     5   ar
    10     5     6   ar
    11     6     7   ar
    12     6     9    1
    13     7     8   ar
    14     7    10    1
    15    10    11    2
    16    10    12    1
    17    12    13    1
    18    13    14    1
    19     2     3    2
    20     2    15    1
    21    15    19   ar
    22    15    16   ar
    23    16    17   ar
    24    17    18   ar
    25    18    19   ar
    26    18    20    1
    27    20    21    1
    28    21    22    1
    29    22    27   ar
    30    22    23   ar
    31    23    24   ar
    32    24    25   ar
    33    25    26   ar
    34    25    28    1
    35    26    27   ar
@<TRIPOS>MOLECULE
ZINC08967627
 34 36 0 0 0
SMALL
GASTEIGER

@<TRIPOS>ATOM
      1 C          25.4912   38.6767   27.0030 C.ar    1  UNL1        0.1222
      2 C          25.3835   39.7557   27.8625 C.ar    1  UNL1        0.0201
      3 C          24.2023   39.9901   28.5354 C.ar    1  UNL1        0.0059
      4 C          23.1144   39.1356   28.3482 C.ar    1  UNL1        0.0538
      5 C          23.2317   38.0455   27.4839 C.ar    1  UNL1        0.0059
      6 C          24.4167   37.8261   26.8124 C.ar    1  UNL1        0.0201
      7 C          21.8460   39.3804   29.0662 C.2     1  UNL1        0.2509
      8 O          21.0881   40.2494   28.6820 O.2     1  UNL1       -0.2698
      9 N          21.5298   38.6399   30.1471 N.am    1  UNL1       -0.2606
     10 H          22.1437   37.9360   30.4583 H       1  UNL1        0.1571
     11 C          20.3418   38.8693   30.8197 C.ar    1  UNL1        0.1657
     12 N          20.1530   39.4425   31.9856 N.ar    1  UNL1       -0.2242
     13 C          18.9253   39.6049   32.5243 C.ar    1  UNL1        0.0852
     14 C          18.5859   40.2051   33.7590 C.ar    1  UNL1       -0.0043
     15 C          17.2790   40.2846   34.1630 C.ar    1  UNL1       -0.0028
     16 C          16.2470   39.7841   33.3823 C.ar    1  UNL1        0.0003
     17 C          16.5424   39.1900   32.1691 C.ar    1  UNL1        0.0081
     18 C          17.8486   39.1059   31.7561 C.ar    1  UNL1        0.0494
     19 S          18.6754   38.4531   30.3254 S.2     1  UNL1       -0.0514
     20 C          19.6736   40.7633   34.6403 C.3     1  UNL1        0.0238
     21 C          19.0747   41.7948   35.5984 C.3     1  UNL1        0.0047
     22 C          20.3101   39.6284   35.4453 C.3     1  UNL1        0.0047
     23 S          27.0033   38.3849   26.1470 S.O2    1  UNL1        0.0633
     24 O          26.6544   38.0243   24.8175 O.2     1  UNL1       -0.1528
     25 O          27.8544   39.4845   26.4396 O.2     1  UNL1       -0.1528
     26 N          27.7035   37.0492   26.8313 N.3     1  UNL1       -0.1555
     27 C          28.0666   37.0585   28.2505 C.3     1  UNL1        0.0958
     28 C          27.0471   36.2380   29.0432 C.3     1  UNL1        0.0191
     29 C          25.0331   36.6509   30.4629 C.3     1  UNL1        0.0000
     30 C          26.4674   37.0957   30.1698 C.3     1  UNL1        0.0015
     31 C          27.9596   35.8583   26.0174 C.3     1  UNL1        0.0958
     32 C          26.7074   34.9795   25.9912 C.3     1  UNL1        0.0191
     33 C          27.0742   33.5563   26.4162 C.3     1  UNL1        0.0015
     34 C          27.4894   32.7475   25.1856 C.3     1  UNL1        0.0000
@<TRIPOS>BOND
     1    29    30    1
     2    30    28    1
     3    28    27    1
     4    27    26    1
     5    26    31    1
     6    26    23    1
     7    31    32    1
     8    32    33    1
     9    33    34    1
    10    23    24    2
    11    23    25    2
    12    23     1    1
    13     1     6   ar
    14     1     2   ar
    15     2     3   ar
    16     3     4   ar
    17     4     5   ar
    18     4     7    1
    19     5     6   ar
    20     7     8    2
    21     7     9   am
    22     9    11    1
    23    11    19   ar
    24    11    12   ar
    25    12    13   ar
    26    13    18   ar
    27    13    14   ar
    28    14    15   ar
    29    14    20    1
    30    15    16   ar
    31    16    17   ar
    32    17    18   ar
    33    18    19   ar
    34    20    21    1
    35    20    22    1
    36     9    10    1
@<TRIPOS>MOLECULE
ZINC13561911
 40 44 0 0 0
SMALL
GASTEIGER

@<TRIPOS>ATOM
      1 C          23.0195   39.2354   28.3648 C.3     1  UNL1        0.1400
      2 C          23.9101   38.3565   29.2048 C.ar    1  UNL1        0.0375
      3 C          23.3512   37.4370   30.0728 C.ar    1  UNL1        0.0050
      4 C          24.1639   36.6246   30.8413 C.ar    1  UNL1        0.0399
      5 C          25.5419   36.7387   30.7509 C.ar    1  UNL1        0.1724
      6 C          26.1044   37.6681   29.8813 C.ar    1  UNL1        0.1723
      7 C          25.2841   38.4754   29.1098 C.ar    1  UNL1        0.0417
      8 O          27.4563   37.7835   29.7888 O.3     1  UNL1       -0.4684
      9 C          27.9685   38.5562   28.7013 C.3     1  UNL1        0.2526
     10 O          26.3427   35.9444   31.5106 O.3     1  UNL1       -0.4684
     11 C          26.4126   36.2397   32.9070 C.3     1  UNL1        0.2526
     12 C          22.3005   38.3921   27.3436 C.ar    1  UNL1        0.2151
     13 N          21.0387   38.0385   27.3691 N.ar    1  UNL1       -0.1065
     14 N          20.8044   37.3242   26.3227 N.ar    1  UNL1       -0.0228
     15 N          21.8859   37.2064   25.6345 N.ar    1  UNL1       -0.0427
     16 N          22.8310   37.8509   26.2311 N.ar    1  UNL1       -0.2074
     17 C          24.2204   37.9708   25.7825 C.3     1  UNL1        0.1571
     18 C          24.3953   39.2642   25.0293 C.ar    1  UNL1        0.0022
     19 C          23.7002   39.4788   23.8538 C.ar    1  UNL1       -0.0023
     20 C          23.8569   40.6672   23.1653 C.ar    1  UNL1       -0.0003
     21 C          24.7167   41.6368   23.6468 C.ar    1  UNL1       -0.0000
     22 C          25.4157   41.4200   24.8195 C.ar    1  UNL1       -0.0003
     23 C          25.2551   40.2337   25.5107 C.ar    1  UNL1       -0.0023
     24 N          22.0163   39.8843   29.2351 N.4     1  UNL1        0.2895
     25 H          22.4539   40.1217   30.1253 H       1  UNL1        0.2082
     26 C          21.5207   41.1227   28.5982 C.3     1  UNL1        0.1340
     27 C          24.9282   42.7463   28.4224 C.ar    1  UNL1        0.1386
     28 C          24.6180   44.0673   28.7122 C.ar    1  UNL1        0.0369
     29 C          23.3077   44.4307   28.9543 C.ar    1  UNL1        0.0030
     30 C          22.3067   43.4772   28.9184 C.ar    1  UNL1        0.0016
     31 C          22.6139   42.1593   28.6356 C.ar    1  UNL1        0.0357
     32 C          23.9225   41.7918   28.3875 C.ar    1  UNL1        0.0383
     33 C          27.0530   43.3602   27.5499 C.3     1  UNL1        0.2525
     34 O          26.2162   42.3874   28.1787 O.3     1  UNL1       -0.4714
     35 C          20.8908   38.9595   29.4849 C.3     1  UNL1        0.1717
     36 C          20.3632   39.2083   30.8745 C.ar    1  UNL1        0.1780
     37 C          21.1064   39.4948   31.9585 C.ar    1  UNL1        0.0422
     38 C          20.2098   39.6498   33.0406 C.ar    1  UNL1        0.0436
     39 C          18.9722   39.4488   32.5532 C.ar    1  UNL1        0.1794
     40 O          19.0709   39.1875   31.2395 O.2     1  UNL1       -0.4488
@<TRIPOS>UNITY_ATOM_ATTR
24 1
charge 1
@<TRIPOS>BOND
     1    33    34    1
     2    34    27    1
     3    27    32   ar
     4    27    28   ar
     5    28    29   ar
     6    29    30   ar
     7    30    31   ar
     8    31    32   ar
     9    31    26    1
    10    26    24    1
    11    35    36    1
    12    35    24    1
    13    36    40   ar
    14    36    37   ar
    15    37    38   ar
    16    38    39   ar
    17    39    40   ar
    18     1     2    1
    19     1    12    1
    20     1    24    1
    21     2     7   ar
    22     2     3   ar
    23     3     4   ar
    24     4     5   ar
    25     5     6   ar
    26     5    10    1
    27     6     7   ar
    28     6     8    1
    29     8     9    1
    30    10    11    1
    31    12    16   ar
    32    12    13   ar
    33    13    14   ar
    34    14    15   ar
    35    15    16   ar
    36    16    17    1
    37    17    18    1
    38    18    23   ar
    39    18    19   ar
    40    19    20   ar
    41    20    21   ar
    42    21    22   ar
    43    22    23   ar
    44    24    25    1
@<TRIPOS>MOLECULE
ZINC06472191
 34 37 0 0 0
SMALL
GASTEIGER

@<TRIPOS>ATOM
      1 C          23.2744   38.5176   29.1959 C.ar    1  UNL1        0.1784
      2 N          23.3052   37.9543   30.3869 N.ar    1  UNL1       -0.2155
      3 C          24.3073   37.1573   30.7370 C.ar    1  UNL1        0.1169
      4 C          25.3738   36.8690   29.8669 C.ar    1  UNL1        0.0767
      5 C          26.4009   35.9742   30.3960 C.ar    1  UNL1       -0.0088
      6 C          26.2285   35.5157   31.6547 C.ar    1  UNL1        0.0345
      7 S          24.7092   36.2392   32.2031 S.2     1  UNL1       -0.0700
      8 C          27.1464   34.5932   32.3953 C.3     1  UNL1        0.1745
      9 O          28.0642   34.0277   31.4459 O.3     1  UNL1       -0.3529
     10 C          28.6681   35.0000   30.5883 C.3     1  UNL1        0.0974
     11 C          27.6330   35.5480   29.6014 C.3     1  UNL1        0.0540
     12 C          29.2204   36.1490   31.4342 C.3     1  UNL1        0.0300
     13 C          29.8122   34.3482   29.8092 C.3     1  UNL1        0.0300
     14 C          25.3112   37.4894   28.5793 C.ar    1  UNL1        0.2678
     15 O          26.1919   37.2983   27.7583 O.2     1  UNL1       -0.2665
     16 N          24.2679   38.2872   28.2864 N.ar    1  UNL1       -0.2542
     17 C          24.2016   38.8982   27.0257 C.ar    1  UNL1        0.0689
     18 C          24.7866   40.1413   26.8250 C.ar    1  UNL1        0.0208
     19 C          24.7252   40.7402   25.5823 C.ar    1  UNL1        0.0384
     20 C          24.0705   40.1046   24.5372 C.ar    1  UNL1        0.1388
     21 C          23.4814   38.8649   24.7387 C.ar    1  UNL1        0.0384
     22 C          23.5463   38.2629   25.9796 C.ar    1  UNL1        0.0208
     23 O          24.0060   40.6971   23.3154 O.3     1  UNL1       -0.4714
     24 C          23.1704   40.0759   22.3365 C.3     1  UNL1        0.2525
     25 S          21.9320   39.5758   28.7686 S.3     1  UNL1       -0.0650
     26 C          20.9014   39.3879   30.2446 C.3     1  UNL1        0.1742
     27 C          19.9660   38.2210   30.0590 C.2     1  UNL1        0.3286
     28 O          20.0280   37.5509   29.0556 O.2     1  UNL1       -0.2491
     29 O          19.0642   37.9261   31.0084 O.3     1  UNL1       -0.4479
     30 C          18.5303   39.0357   31.7778 C.3     1  UNL1        0.2085
     31 C          19.0996   38.9927   33.1973 C.3     1  UNL1        0.0474
     32 C          18.3082   39.9475   34.0933 C.3     1  UNL1        0.0038
     33 C          20.6536   40.1918   34.9188 C.3     1  UNL1        0.0000
     34 C          19.2775   40.8570   34.8512 C.3     1  UNL1        0.0001
@<TRIPOS>BOND
     1    33    34    1
     2    34    32    1
     3    32    31    1
     4    31    30    1
     5    30    29    1
     6    29    27    1
     7    27    28    2
     8    27    26    1
     9    26    25    1
    10    25     1    1
    11     1    16   ar
    12     1     2   ar
    13     2     3   ar
    14     3     7   ar
    15     3     4   ar
    16     4     5   ar
    17     4    14   ar
    18     5    11    1
    19     5     6   ar
    20     6     7   ar
    21     6     8    1
    22     8     9    1
    23     9    10    1
    24    10    11    1
    25    10    12    1
    26    10    13    1
    27    14    15    2
    28    14    16   ar
    29    16    17    1
    30    17    22   ar
    31    17    18   ar
    32    18    19   ar
    33    19    20   ar
    34    20    21   ar
    35    20    23    1
    36    21    22   ar
    37    23    24    1
@<TRIPOS>MOLECULE
ZINC09941713
 37 40 0 0 0
SMALL
GASTEIGER

@<TRIPOS>ATOM
      1 C          27.2183   33.3366   29.3811 C.ar    1  UNL1        0.1161
      2 C          27.0398   34.5624   30.0647 C.ar    1  UNL1        0.1329
      3 C          26.7778   35.7225   29.3294 C.ar    1  UNL1        0.1486
      4 C          26.7042   35.6123   27.9213 C.ar    1  UNL1        0.0519
      5 C          26.4463   36.7340   27.1201 C.ar    1  UNL1        0.0045
      6 C          26.3820   36.5954   25.7657 C.ar    1  UNL1        0.0002
      7 C          26.5636   35.3515   25.1677 C.ar    1  UNL1        0.0015
      8 C          26.8209   34.2433   25.9169 C.ar    1  UNL1        0.0192
      9 C          26.8951   34.3473   27.3157 C.ar    1  UNL1        0.0847
     10 N          27.1431   33.2668   28.0686 N.ar    1  UNL1       -0.2387
     11 C          27.1281   34.6155   31.5299 C.2     1  UNL1        0.3463
     12 O          28.1922   34.8564   32.0664 O.2     1  UNL1       -0.2447
     13 O          26.0293   34.3972   32.2799 O.3     1  UNL1       -0.4412
     14 C          26.0161   34.9722   33.6131 C.3     1  UNL1        0.2560
     15 S          27.5472   31.8731   30.3055 S.3     1  UNL1       -0.0898
     16 C          27.2517   30.6229   29.0304 C.3     1  UNL1        0.0898
     17 C          23.5052   27.3981   29.8116 C.3     1  UNL1        0.0310
     18 C          24.9321   27.8227   30.0460 C.ar    1  UNL1       -0.0221
     19 C          25.7572   27.0590   30.8506 C.ar    1  UNL1       -0.0043
     20 C          27.0657   27.4486   31.0659 C.ar    1  UNL1       -0.0006
     21 C          27.5494   28.6020   30.4767 C.ar    1  UNL1       -0.0034
     22 C          26.7245   29.3655   29.6724 C.ar    1  UNL1       -0.0113
     23 C          25.4141   28.9785   29.4612 C.ar    1  UNL1       -0.0077
     24 O          26.6008   36.9133   29.9457 O.3     1  UNL1       -0.4702
     25 C          25.3940   37.0847   30.6913 C.3     1  UNL1        0.2350
     26 C          24.3973   37.8547   29.8638 C.ar    1  UNL1        0.0553
     27 C          23.1352   37.3443   29.6571 C.ar    1  UNL1        0.0088
     28 C          22.2113   38.0595   28.8898 C.ar    1  UNL1        0.0756
     29 C          22.5734   39.2908   28.3353 C.ar    1  UNL1        0.0095
     30 C          23.8372   39.7938   28.5468 C.ar    1  UNL1        0.0369
     31 C          24.7514   39.0817   29.3151 C.ar    1  UNL1        0.1382
     32 O          25.9943   39.5837   29.5260 O.3     1  UNL1       -0.4716
     33 C          26.1794   40.9800   29.2851 C.3     1  UNL1        0.2525
     34 C          20.8584   37.5169   28.6662 C.2     1  UNL1        0.3413
     35 O          20.7177   36.4445   28.1128 O.2     1  UNL1       -0.2449
     36 O          19.7782   38.2107   29.0757 O.3     1  UNL1       -0.4413
     37 C          19.6472   38.4447   30.5027 C.3     1  UNL1        0.2560
@<TRIPOS>BOND
     1    17    18    1
     2    18    23   ar
     3    18    19   ar
     4    19    20   ar
     5    20    21   ar
     6    21    22   ar
     7    22    23   ar
     8    22    16    1
     9    16    15    1
    10    15     1    1
    11     1    10   ar
    12     1     2   ar
    13     2     3   ar
    14     2    11    1
    15     3     4   ar
    16     3    24    1
    17     4     9   ar
    18     4     5   ar
    19     5     6   ar
    20     6     7   ar
    21     7     8   ar
    22     8     9   ar
    23     9    10   ar
    24    24    25    1
    25    25    26    1
    26    26    31   ar
    27    26    27   ar
    28    27    28   ar
    29    28    29   ar
    30    28    34    1
    31    29    30   ar
    32    30    31   ar
    33    31    32    1
    34    32    33    1
    35    34    35    2
    36    34    36    1
    37    36    37    1
    38    11    12    2
    39    11    13    1
    40    13    14    1
@<TRIPOS>MOLECULE
ZINC02753207
 36 39 0 0 0
SMALL
GASTEIGER

@<TRIPOS>ATOM
      1 C          16.8988   39.8834   33.9327 C.3     1  UNL1        0.0319
      2 C          17.2285   39.3565   32.5599 C.ar    1  UNL1       -0.0047
      3 C          18.4955   38.8815   32.2591 C.ar    1  UNL1        0.0555
      4 C          18.7225   38.4084   30.9614 C.ar    1  UNL1       -0.0852
      5 S          17.1869   38.6388   30.1911 S.2     1  UNL1       -0.1056
      6 C          16.2869   39.3300   31.5660 C.ar    1  UNL1        0.0996
      7 C          14.8920   39.7659   31.6178 C.2     1  UNL1        0.3468
      8 O          14.6158   40.9407   31.4640 O.2     1  UNL1       -0.2443
      9 O          13.9114   38.8652   31.8360 O.3     1  UNL1       -0.4489
     10 C          12.9213   38.7241   30.8154 C.3     1  UNL1        0.1694
     11 C          13.3677   37.6547   29.8162 C.3     1  UNL1        0.0473
     12 C          11.5920   38.3075   31.4481 C.3     1  UNL1        0.0473
     13 C          19.5620   38.8742   33.2668 C.2     1  UNL1        0.3395
     14 O          19.6035   37.9910   34.1017 O.2     1  UNL1       -0.2450
     15 O          20.4959   39.8467   33.2672 O.3     1  UNL1       -0.4492
     16 C          20.5658   40.6931   34.4449 C.3     1  UNL1        0.1694
     17 C          19.5432   41.8245   34.3211 C.3     1  UNL1        0.0473
     18 C          20.2567   39.8603   35.6906 C.3     1  UNL1        0.0473
     19 N          19.8841   37.8918   30.4257 N.am    1  UNL1       -0.6055
     20 C          20.8470   38.7218   29.9780 C.2     1  UNL1        0.0817
     21 O          20.6127   39.9065   29.8411 O.2     1  UNL1       -0.3129
     22 C          22.1880   38.1912   29.6535 C.ar    1  UNL1        0.0185
     23 C          23.0514   37.7572   30.6482 C.ar    1  UNL1        0.0209
     24 C          24.3195   37.2643   30.2941 C.ar    1  UNL1        0.0873
     25 N          24.7239   37.1995   29.0402 N.ar    1  UNL1       -0.2449
     26 C          23.9576   37.5961   28.0227 C.ar    1  UNL1        0.0813
     27 C          22.6594   38.1088   28.2700 C.ar    1  UNL1        0.0189
     28 C          21.8593   38.5224   27.2001 C.ar    1  UNL1        0.0015
     29 C          22.3364   38.4284   25.9259 C.ar    1  UNL1        0.0001
     30 C          23.6114   37.9257   25.6766 C.ar    1  UNL1        0.0015
     31 C          24.4159   37.5145   26.6946 C.ar    1  UNL1        0.0191
     32 C          25.2287   36.8046   31.3610 C.ar    1  UNL1        0.0471
     33 C          24.9295   36.4026   32.6375 C.ar    1  UNL1        0.0085
     34 C          25.9558   36.0071   33.4638 C.ar    1  UNL1        0.0075
     35 C          27.2318   36.0374   32.9963 C.ar    1  UNL1        0.0355
     36 S          27.0056   36.6340   31.3290 S.2     1  UNL1       -0.0849
@<TRIPOS>UNITY_ATOM_ATTR
19 1
charge -1
@<TRIPOS>BOND
     1     1     2    1
     2     2     6   ar
     3     2     3   ar
     4     3     4   ar
     5     3    13    1
     6     4     5   ar
     7     4    19    1
     8     5     6   ar
     9     6     7    1
    10     7     8    2
    11     7     9    1
    12     9    10    1
    13    10    11    1
    14    10    12    1
    15    19    20    1
    16    20    21    2
    17    20    22    1
    18    22    27   ar
    19    22    23   ar
    20    23    24   ar
    21    24    25   ar
    22    24    32    1
    23    25    26   ar
    24    26    31   ar
    25    26    27   ar
    26    27    28   ar
    27    28    29   ar
    28    29    30   ar
    29    30    31   ar
    30    32    36   ar
    31    32    33   ar
    32    33    34   ar
    33    34    35   ar
    34    35    36   ar
    35    13    14    2
    36    13    15    1
    37    15    16    1
    38    16    17    1
    39    16    18    1
@<TRIPOS>MOLECULE
ZINC02618306
 36 38 0 0 0
SMALL
GASTEIGER

@<TRIPOS>ATOM
      1 C          25.9744   39.6178   26.4627 C.3     1  UNL1        0.0504
      2 C          24.7305   39.1639   27.1823 C.ar    1  UNL1        0.0415
      3 C          23.5392   39.7835   27.1445 C.ar    1  UNL1        0.0171
      4 C          22.6342   38.9953   27.9924 C.ar    1  UNL1        0.0487
      5 C          23.3870   37.9393   28.4712 C.ar    1  UNL1        0.0442
      6 N          24.6339   38.0541   27.9748 N.ar    1  UNL1       -0.3134
      7 C          22.8973   36.8485   29.3885 C.3     1  UNL1        0.0505
      8 C          25.6853   37.1648   28.2384 C.ar    1  UNL1        0.0638
      9 C          26.0274   36.2012   27.3016 C.ar    1  UNL1        0.0239
     10 C          27.0740   35.3136   27.5605 C.ar    1  UNL1        0.0773
     11 C          27.7786   35.4008   28.7598 C.ar    1  UNL1        0.0130
     12 C          27.4279   36.3665   29.7015 C.ar    1  UNL1        0.0773
     13 C          26.3802   37.2505   29.4354 C.ar    1  UNL1        0.0239
     14 C          28.1676   36.4587   30.9772 C.2     1  UNL1        0.3414
     15 O          29.1487   37.1699   31.0603 O.2     1  UNL1       -0.2449
     16 O          27.7539   35.7541   32.0481 O.3     1  UNL1       -0.4413
     17 C          27.2449   36.5104   33.1783 C.3     1  UNL1        0.2560
     18 C          27.4377   34.2873   26.5617 C.2     1  UNL1        0.3414
     19 O          28.1903   34.5668   25.6501 O.2     1  UNL1       -0.2449
     20 O          26.9347   33.0417   26.6620 O.3     1  UNL1       -0.4413
     21 C          27.5391   32.0177   25.8288 C.3     1  UNL1        0.2560
     22 C          21.2238   39.2714   28.2722 C.2     1  UNL1        0.1854
     23 O          20.3679   38.9057   27.4936 O.2     1  UNL1       -0.2904
     24 C          20.8349   40.0096   29.5271 C.3     1  UNL1        0.1325
     25 S          20.4800   38.8155   30.8458 S.3     1  UNL1       -0.0858
     26 C          18.7331   38.9158   31.0529 C.ar    1  UNL1        0.1176
     27 C          18.2042   39.2854   32.2874 C.ar    1  UNL1        0.0811
     28 C          16.8307   39.3652   32.4335 C.ar    1  UNL1        0.0189
     29 C          16.0290   39.0611   31.3406 C.ar    1  UNL1        0.0914
     30 C          16.6207   38.6966   30.1483 C.ar    1  UNL1        0.1033
     31 N          17.9342   38.6338   30.0351 N.ar    1  UNL1       -0.2368
     32 CL         19.2538   39.6474   33.6219 Cl      1  UNL1       -0.0802
     33 C          14.5279   39.1292   31.4556 C.3     1  UNL1        0.4200
     34 F          14.1418   38.7579   32.7479 F       1  UNL1       -0.1658
     35 F          14.0993   40.4358   31.1980 F       1  UNL1       -0.1658
     36 F          13.9490   38.2571   30.5273 F       1  UNL1       -0.1658
@<TRIPOS>BOND
     1     1     2    1
     2     2     6   ar
     3     2     3   ar
     4     3     4   ar
     5     4     5   ar
     6     4    22    1
     7     5     6   ar
     8     5     7    1
     9     6     8    1
    10     8    13   ar
    11     8     9   ar
    12     9    10   ar
    13    10    11   ar
    14    10    18    1
    15    11    12   ar
    16    12    13   ar
    17    12    14    1
    18    14    15    2
    19    14    16    1
    20    16    17    1
    21    18    19    2
    22    18    20    1
    23    20    21    1
    24    22    23    2
    25    22    24    1
    26    24    25    1
    27    25    26    1
    28    26    31   ar
    29    26    27   ar
    30    27    28   ar
    31    27    32    1
    32    28    29   ar
    33    29    30   ar
    34    29    33    1
    35    30    31   ar
    36    33    34    1
    37    33    35    1
    38    33    36    1
@<TRIPOS>MOLECULE
ZINC28615430
 36 39 0 0 0
SMALL
GASTEIGER

@<TRIPOS>ATOM
      1 N          19.7512   39.2351   32.3013 N.am    1  UNL1       -0.1963
      2 C          20.8253   39.0454   31.5552 C.2     1  UNL1        0.2652
      3 O          21.9410   39.2330   32.0144 O.2     1  UNL1       -0.2688
      4 C          20.6619   38.6244   30.2232 C.2     1  UNL1        0.1100
      5 C          21.6264   38.3626   29.2595 C.2     1  UNL1        0.0928
      6 N          22.9436   38.0295   29.4316 N.pl3   1  UNL1       -0.2810
      7 C          23.7537   37.8100   28.3320 C.ar    1  UNL1        0.0610
      8 C          25.1168   37.4677   28.3305 C.ar    1  UNL1        0.0522
      9 C          25.7959   37.2732   27.1467 C.ar    1  UNL1        0.1400
     10 C          25.1562   37.4091   25.9212 C.ar    1  UNL1        0.0375
     11 C          23.8145   37.7460   25.8967 C.ar    1  UNL1        0.0109
     12 C          23.1388   37.9395   27.0782 C.ar    1  UNL1        0.0445
     13 S          21.4625   38.3685   27.4818 S.3     1  UNL1       -0.0702
     14 S          18.8819   38.5234   30.0988 S.3     1  UNL1        0.0045
     15 C          18.4975   39.0200   31.7714 C.2     1  UNL1        0.3210
     16 N          17.3177   39.1519   32.3487 N.2     1  UNL1       -0.1843
     17 H          17.2587   39.4412   33.2878 H       1  UNL1        0.4554
     18 C          16.1827   38.8877   31.6455 C.ar    1  UNL1        0.2252
     19 C          14.9307   39.0153   32.2619 C.ar    1  UNL1        0.0694
     20 C          13.7937   38.7563   31.5554 C.ar    1  UNL1        0.0125
     21 C          13.8776   38.3514   30.2171 C.ar    1  UNL1        0.0760
     22 C          15.1292   38.2181   29.6024 C.ar    1  UNL1        0.0125
     23 C          16.2662   38.4826   30.3066 C.ar    1  UNL1        0.0694
     24 C          12.6507   38.0663   29.4568 C.2     1  UNL1        0.3412
     25 O          11.5641   38.3227   29.9378 O.2     1  UNL1       -0.2449
     26 O          12.7315   37.5209   28.2266 O.3     1  UNL1       -0.4454
     27 C          11.5710   37.6621   27.3653 C.3     1  UNL1        0.2089
     28 C          11.2037   36.2985   26.7768 C.3     1  UNL1        0.0513
     29 O          27.1142   36.9423   27.1793 O.3     1  UNL1       -0.4714
     30 C          27.6925   36.7072   28.4648 C.3     1  UNL1        0.2525
     31 C          23.4969   37.9097   30.7829 C.3     1  UNL1        0.0961
     32 C          24.1232   36.5247   30.9565 C.3     1  UNL1        0.0236
     33 C          19.8933   39.6736   33.6919 C.3     1  UNL1        0.1046
     34 C          19.7847   41.1983   33.7596 C.3     1  UNL1        0.0221
     35 C          17.4286   41.4236   34.5598 C.3     1  UNL1        0.0001
     36 C          18.8999   41.5944   34.9433 C.3     1  UNL1        0.0018
@<TRIPOS>UNITY_ATOM_ATTR
16 1
charge 1
@<TRIPOS>BOND
     1    35    36    1
     2    36    34    1
     3    34    33    1
     4    33     1    1
     5     1    15    1
     6     1     2   am
     7     2     3    2
     8     2     4    1
     9     4     5    2
    10     4    14    1
    11     5    13    1
    12     5     6    1
    13     6     7    1
    14     6    31    1
    15     7    12   ar
    16     7     8   ar
    17     8     9   ar
    18     9    10   ar
    19     9    29    1
    20    10    11   ar
    21    11    12   ar
    22    12    13    1
    23    29    30    1
    24    31    32    1
    25    14    15    1
    26    15    16    2
    27    16    18    1
    28    18    23   ar
    29    18    19   ar
    30    19    20   ar
    31    20    21   ar
    32    21    22   ar
    33    21    24    1
    34    22    23   ar
    35    24    25    2
    36    24    26    1
    37    26    27    1
    38    27    28    1
    39    16    17    1
@<TRIPOS>MOLECULE
ZINC13868497
 36 38 0 0 0
SMALL
GASTEIGER

@<TRIPOS>ATOM
      1 C          23.0126   37.6805   28.5565 C.ar    1  UNL1        0.1937
      2 N          23.2884   37.5475   29.8332 N.ar    1  UNL1       -0.1223
      3 N          24.4766   37.9765   30.0700 N.ar    1  UNL1       -0.1291
      4 C          25.0223   38.4127   28.9702 C.ar    1  UNL1        0.1842
      5 N          24.1095   38.2399   27.9666 N.ar    1  UNL1       -0.2868
      6 C          26.4034   38.9991   28.8300 C.3     1  UNL1        0.2236
      7 C          27.4418   37.9740   29.2904 C.3     1  UNL1        0.0557
      8 O          26.5056   40.1752   29.6352 O.3     1  UNL1       -0.4716
      9 C          26.4069   41.3707   28.9965 C.ar    1  UNL1        0.1384
     10 C          25.3396   42.2156   29.2646 C.ar    1  UNL1        0.0326
     11 C          25.2444   43.4326   28.6180 C.ar    1  UNL1       -0.0192
     12 C          26.2059   43.8043   27.6964 C.ar    1  UNL1       -0.0083
     13 C          27.2674   42.9615   27.4233 C.ar    1  UNL1       -0.0192
     14 C          27.3701   41.7457   28.0712 C.ar    1  UNL1        0.0326
     15 C          28.3136   43.3698   26.4184 C.3     1  UNL1        0.0311
     16 C          24.0887   44.3537   28.9132 C.3     1  UNL1        0.0311
     17 S          21.5085   37.2294   27.7572 S.3     1  UNL1       -0.0658
     18 C          20.6615   38.8290   27.7553 C.3     1  UNL1        0.1501
     19 N          19.6401   38.4810   29.9811 N.am    1  UNL1       -0.2781
     20 C          20.3923   39.2564   29.1751 C.2     1  UNL1        0.2379
     21 O          20.8524   40.2980   29.5925 O.2     1  UNL1       -0.2738
     22 H          19.2665   37.6355   29.6422 H       1  UNL1        0.1553
     23 C          18.1656   39.0559   31.9167 C.ar    1  UNL1        0.0954
     24 C          18.2014   39.4782   33.2971 C.ar    1  UNL1        0.0104
     25 C          19.4127   39.6481   33.8561 C.ar    1  UNL1        0.0090
     26 S          20.5352   39.2505   32.5322 S.2     1  UNL1       -0.0763
     27 C          19.3924   38.8741   31.2870 C.ar    1  UNL1        0.0867
     28 C          19.7409   40.0723   35.2644 C.3     1  UNL1        0.0382
     29 C          16.9004   38.8352   31.2131 C.2     1  UNL1        0.3429
     30 O          16.9046   38.4148   30.0716 O.2     1  UNL1       -0.2448
     31 O          15.7305   39.0981   31.8308 O.3     1  UNL1       -0.4454
     32 C          13.3060   39.2418   31.6538 C.3     1  UNL1        0.0513
     33 C          14.6453   39.5945   31.0036 C.3     1  UNL1        0.2089
     34 C          24.2744   38.5837   26.5520 C.3     1  UNL1        0.1357
     35 C          23.9417   40.0390   26.3466 C.2     1  UNL1       -0.0017
     36 C          24.7137   40.7883   25.5992 C.2     1  UNL1       -0.0029
@<TRIPOS>BOND
     1    32    33    1
     2    33    31    1
     3    31    29    1
     4    29    30    2
     5    29    23    1
     6    23    27   ar
     7    23    24   ar
     8    24    25   ar
     9    25    26   ar
    10    25    28    1
    11    26    27   ar
    12    27    19    1
    13    19    20   am
    14    20    21    2
    15    20    18    1
    16    18    17    1
    17    17     1    1
    18     1     5   ar
    19     1     2   ar
    20     2     3   ar
    21     3     4   ar
    22     4     5   ar
    23     4     6    1
    24     5    34    1
    25    34    35    1
    26    35    36    2
    27     6     7    1
    28     6     8    1
    29     8     9    1
    30     9    14   ar
    31     9    10   ar
    32    10    11   ar
    33    11    12   ar
    34    11    16    1
    35    12    13   ar
    36    13    14   ar
    37    13    15    1
    38    19    22    1
@<TRIPOS>MOLECULE
ZINC22373960
 35 37 0 0 0
SMALL
GASTEIGER

@<TRIPOS>ATOM
      1 C          22.5874   38.0514   28.2797 C.ar    1  UNL1        0.1739
      2 N          22.4256   38.3619   27.0173 N.ar    1  UNL1       -0.2224
      3 C          23.4306   38.8967   26.2845 C.ar    1  UNL1        0.0882
      4 C          23.2553   39.2275   24.9378 C.ar    1  UNL1        0.0258
      5 C          24.3153   39.7745   24.2257 C.ar    1  UNL1        0.0771
      6 C          25.5511   39.9944   24.8479 C.ar    1  UNL1        0.0067
      7 C          25.7338   39.6751   26.1627 C.ar    1  UNL1        0.0065
      8 C          24.6835   39.1250   26.8967 C.ar    1  UNL1        0.0739
      9 C          24.8369   38.7667   28.3158 C.ar    1  UNL1        0.2637
     10 O          25.8910   38.9387   28.8994 O.2     1  UNL1       -0.2669
     11 N          23.7619   38.2436   28.9494 N.ar    1  UNL1       -0.2753
     12 C          24.1376   40.1279   22.7999 C.2     1  UNL1        0.3414
     13 O          25.1032   40.4077   22.1188 O.2     1  UNL1       -0.2449
     14 O          22.9048   40.1392   22.2577 O.3     1  UNL1       -0.4413
     15 C          22.5397   41.3063   21.4748 C.3     1  UNL1        0.2560
     16 S          21.2241   37.3603   29.1563 S.3     1  UNL1       -0.0688
     17 C          21.0850   40.0871   29.0629 C.3     1  UNL1        0.0218
     18 C          20.2762   38.8638   29.4990 C.3     1  UNL1        0.1311
     19 C          19.9899   38.9513   30.9759 C.2     1  UNL1        0.2362
     20 O          20.9044   39.0560   31.7659 O.2     1  UNL1       -0.2739
     21 N          18.7177   38.9134   31.4192 N.am    1  UNL1       -0.2706
     22 C          18.4394   38.9985   32.8550 C.3     1  UNL1        0.1202
     23 C          18.3241   40.4457   33.2594 C.2     1  UNL1       -0.0047
     24 C          19.1375   40.9412   34.1588 C.2     1  UNL1       -0.0031
     25 C          17.6132   38.7869   30.4652 C.3     1  UNL1        0.1202
     26 C          16.3039   38.9942   31.1823 C.2     1  UNL1       -0.0047
     27 C          15.2241   39.2893   30.5020 C.2     1  UNL1       -0.0031
     28 C          23.8604   37.8753   30.3639 C.3     1  UNL1        0.1156
     29 C          24.2585   36.4027   30.4811 C.3     1  UNL1        0.0510
     30 C          25.2952   36.2472   31.5637 C.ar    1  UNL1       -0.0202
     31 C          26.5830   36.7057   31.3586 C.ar    1  UNL1       -0.0042
     32 C          27.5326   36.5677   32.3537 C.ar    1  UNL1       -0.0003
     33 C          27.1972   35.9614   33.5497 C.ar    1  UNL1       -0.0000
     34 C          25.9108   35.4978   33.7527 C.ar    1  UNL1       -0.0003
     35 C          24.9598   35.6408   32.7599 C.ar    1  UNL1       -0.0042
@<TRIPOS>BOND
     1    17    18    1
     2    18    19    1
     3    18    16    1
     4    19    20    2
     5    19    21   am
     6    21    22    1
     7    21    25    1
     8    22    23    1
     9    23    24    2
    10    25    26    1
    11    26    27    2
    12    16     1    1
    13     1    11   ar
    14     1     2   ar
    15     2     3   ar
    16     3     8   ar
    17     3     4   ar
    18     4     5   ar
    19     5     6   ar
    20     5    12    1
    21     6     7   ar
    22     7     8   ar
    23     8     9   ar
    24     9    10    2
    25     9    11   ar
    26    11    28    1
    27    28    29    1
    28    29    30    1
    29    30    35   ar
    30    30    31   ar
    31    31    32   ar
    32    32    33   ar
    33    33    34   ar
    34    34    35   ar
    35    12    13    2
    36    12    14    1
    37    14    15    1
