@<TRIPOS>MOLECULE
BDB50085040
 34 37 0 0 0
SMALL
GASTEIGER

@<TRIPOS>ATOM
      1 C          15.0796   39.8724   32.2112 C.ar    1  UNL1        0.1443
      2 C          16.9497   40.1908   33.4234 C.ar    1  UNL1        0.0406
      3 C          16.4419   39.5928   32.2299 C.ar    1  UNL1        0.0375
      4 O          14.7400   40.6064   33.3101 O.2     1  UNL1       -0.4506
      5 C          15.8713   40.7932   34.0354 C.ar    1  UNL1        0.1795
      6 C          14.1883   39.4642   31.2081 C.ar    1  UNL1        0.0462
      7 C          16.9802   38.8547   31.1625 C.ar    1  UNL1        0.0062
      8 C          14.7609   38.7316   30.1431 C.ar    1  UNL1        0.1374
      9 C          16.1305   38.4321   30.1294 C.ar    1  UNL1        0.0368
     10 C          18.2843   40.2154   33.9908 C.ar    1  UNL1        0.0031
     11 C          19.1463   39.1262   33.8059 C.ar    1  UNL1        0.0001
     12 C          18.7322   41.3212   34.7276 C.ar    1  UNL1        0.0001
     13 C          20.0204   41.3343   35.2710 C.ar    1  UNL1        0.0000
     14 C          20.4328   39.1425   34.3499 C.ar    1  UNL1        0.0000
     15 C          20.8687   40.2460   35.0817 C.ar    1  UNL1        0.0000
     16 C          12.7230   39.8162   31.2447 C.3     1  UNL1        0.0325
     17 C          11.9006   38.7378   31.9517 C.3     1  UNL1        0.0049
     18 C          10.9883   38.0081   30.9779 C.3     1  UNL1        0.0004
     19 O          13.8786   38.3534   29.1595 O.3     1  UNL1       -0.4756
     20 C          14.2792   37.3081   28.2762 C.3     1  UNL1        0.2063
     21 C          13.4244   37.4058   27.0139 C.3     1  UNL1        0.0593
     22 C          11.9623   37.6018   27.3857 C.3     1  UNL1        0.0660
     23 S          10.8670   36.8012   26.1695 S.3     1  UNL1       -0.1127
     24 C          10.6172   38.2171   23.7422 C.ar    1  UNL1        0.0630
     25 C          10.5774   38.2433   25.1451 C.ar    1  UNL1        0.0357
     26 C          10.4994   39.4030   23.0127 C.ar    1  UNL1        0.0080
     27 C          10.3331   40.6288   23.6690 C.ar    1  UNL1       -0.0157
     28 C          10.3784   39.4681   25.7977 C.ar    1  UNL1        0.0067
     29 CL         10.8462   36.7513   22.8493 Cl      1  UNL1       -0.0817
     30 C          10.2619   40.6502   25.0661 C.ar    1  UNL1       -0.0033
     31 C          10.3194   41.9169   22.8881 C.3     1  UNL1        0.0680
     32 C          11.0027   41.6923   21.5386 C.2     1  UNL1        0.0547
     33 O          12.2630   41.7936   21.5480 O.co2   1  UNL1       -0.5488
     34 O          10.2232   41.4386   20.5752 O.co2   1  UNL1       -0.5488
@<TRIPOS>UNITY_ATOM_ATTR
34 1
charge -1
@<TRIPOS>BOND
     1     1     3   ar
     2     1     4   ar
     3     1     6   ar
     4     2     3   ar
     5     2     5   ar
     6     2    10    1
     7     3     7   ar
     8     4     5   ar
     9     6     8   ar
    10     6    16    1
    11     7     9   ar
    12    24    25   ar
    13    24    26   ar
    14    24    29    1
    15     8     9   ar
    16     8    19    1
    17    32    33   ar
    18    32    31    1
    19    32    34   ar
    20    10    11   ar
    21    10    12   ar
    22    25    28   ar
    23    25    23    1
    24    26    27   ar
    25    27    31    1
    26    27    30   ar
    27    28    30   ar
    28    23    22    1
    29    16    17    1
    30    19    20    1
    31    21    22    1
    32    21    20    1
    33    11    14   ar
    34    12    13   ar
    35    17    18    1
    36    13    15   ar
    37    14    15   ar
@<TRIPOS>MOLECULE
BDB50085042
 25 26 0 0 0
SMALL
GASTEIGER

@<TRIPOS>ATOM
      1 C          21.8772   37.8939   29.7289 C.ar    1  UNL1        0.0063
      2 C          22.9210   38.2087   28.8551 C.ar    1  UNL1        0.0370
      3 C          22.9888   39.4560   28.2212 C.ar    1  UNL1        0.1390
      4 C          21.9778   40.3824   28.4564 C.ar    1  UNL1        0.0370
      5 C          20.9271   40.0789   29.3308 C.ar    1  UNL1        0.0063
      6 C          20.8856   38.8438   29.9832 C.ar    1  UNL1        0.0391
      7 C          19.7566   38.5636   30.9006 C.2     1  UNL1        0.1955
      8 O          18.9448   37.6913   30.6029 O.2     1  UNL1       -0.2866
      9 C          19.5787   39.3166   32.1668 C.ar    1  UNL1        0.0390
     10 C          20.6909   39.4900   33.0002 C.ar    1  UNL1        0.0040
     11 C          20.5601   40.1802   34.2074 C.ar    1  UNL1        0.0115
     12 C          19.3152   40.6837   34.5840 C.ar    1  UNL1        0.0577
     13 C          18.1988   40.4971   33.7676 C.ar    1  UNL1        0.0115
     14 C          18.3279   39.8073   32.5599 C.ar    1  UNL1        0.0040
     15 CL         19.1520   41.5341   36.0705 Cl      1  UNL1       -0.0822
     16 O          24.0737   39.5933   27.4129 O.3     1  UNL1       -0.4720
     17 C          25.2814   40.2930   27.7511 C.3     1  UNL1        0.2212
     18 C          26.4388   39.9688   26.7982 C.3     1  UNL1        0.0553
     19 C          25.6260   40.1443   29.2375 C.3     1  UNL1        0.0553
     20 C          24.9089   41.7759   27.5136 C.2     1  UNL1        0.3534
     21 O          24.7241   42.3015   26.4222 O.2     1  UNL1       -0.2462
     22 O          24.8182   42.4410   28.7066 O.3     1  UNL1       -0.4499
     23 C          24.3465   43.8032   28.6581 C.3     1  UNL1        0.1692
     24 C          22.8549   43.7707   28.9628 C.3     1  UNL1        0.0473
     25 C          25.0930   44.6345   29.6946 C.3     1  UNL1        0.0473
@<TRIPOS>BOND
     1     1     2   ar
     2     1     6   ar
     3     2     3   ar
     4     3     4   ar
     5     3    16    1
     6     4     5   ar
     7     5     6   ar
     8     6     7    1
     9     7     9    1
    10     7     8    2
    11     9    10   ar
    12     9    14   ar
    13    10    11   ar
    14    11    12   ar
    15    12    13   ar
    16    12    15    1
    17    13    14   ar
    18    16    17    1
    19    17    20    1
    20    17    18    1
    21    17    19    1
    22    20    21    2
    23    20    22    1
    24    22    23    1
    25    23    24    1
    26    23    25    1
@<TRIPOS>MOLECULE
BDB28799
 35 36 0 0 0
SMALL
GASTEIGER

@<TRIPOS>ATOM
      1 O          25.2146   38.5726   30.0771 O.2     1  UNL1       -0.2522
      2 N          23.0181   38.3857   29.3987 N.am    1  UNL1       -0.2636
      3 N          24.0423   36.6692   30.6322 N.am    1  UNL1       -0.2663
      4 C          24.1729   37.9186   30.0572 C.2     1  UNL1        0.3077
      5 H          23.2077   36.1863   30.4337 H       1  UNL1        0.1565
      6 F          26.0469   35.2605   29.4982 F       1  UNL1       -0.2028
      7 F          27.7914   33.9290   33.6617 F       1  UNL1       -0.2041
      8 C          24.9629   36.0011   31.4711 C.ar    1  UNL1        0.0794
      9 C          25.9875   35.2791   30.8392 C.ar    1  UNL1        0.1557
     10 C          24.9125   36.0019   32.8671 C.ar    1  UNL1        0.0193
     11 C          26.9456   34.5783   31.5624 C.ar    1  UNL1        0.0605
     12 C          25.8727   35.3000   33.6050 C.ar    1  UNL1        0.0311
     13 C          26.8783   34.5975   32.9469 C.ar    1  UNL1        0.1425
     14 C          21.7107   37.7014   29.4345 C.3     1  UNL1        0.0950
     15 C          20.4885   38.5627   29.7648 C.3     1  UNL1        0.0216
     16 C          20.5420   39.0678   31.2089 C.3     1  UNL1        0.0018
     17 C          19.2449   38.7532   31.9561 C.3     1  UNL1        0.0001
     18 C          19.0746   39.6558   33.1788 C.3     1  UNL1        0.0000
     19 C          19.8985   39.1496   34.3624 C.3     1  UNL1        0.0000
     20 C          20.4914   40.3001   35.1611 C.3     1  UNL1        0.0000
     21 C          23.1675   39.5974   28.5791 C.3     1  UNL1        0.0996
     22 C          23.0200   39.2855   27.0865 C.3     1  UNL1        0.0479
     23 C          24.1880   39.8020   26.2881 C.ar    1  UNL1       -0.0204
     24 C          24.6957   41.0858   26.5226 C.ar    1  UNL1       -0.0037
     25 C          24.7603   39.0166   25.2798 C.ar    1  UNL1       -0.0037
     26 C          26.3590   40.7701   24.7891 C.ar    1  UNL1        0.0255
     27 C          25.7712   41.5682   25.7738 C.ar    1  UNL1        0.0058
     28 C          25.8360   39.5001   24.5329 C.ar    1  UNL1        0.0058
     29 S          27.7154   41.3927   23.8180 S.3     1  UNL1       -0.1101
     30 C          26.8607   41.9407   22.2576 C.3     1  UNL1        0.0751
     31 C          26.0323   40.8116   21.6412 C.3     1  UNL1        0.0168
     32 C          27.8528   42.4978   21.2362 C.3     1  UNL1        0.0168
     33 O          26.4999   44.0788   23.3025 O.co2   1  UNL1       -0.5483
     34 O          24.6786   42.8764   22.6492 O.co2   1  UNL1       -0.5483
     35 C          25.9227   43.0784   22.7816 C.2     1  UNL1        0.0592
@<TRIPOS>UNITY_ATOM_ATTR
33 1
charge -1
@<TRIPOS>BOND
     1    29    30    1
     2    29    26    1
     3     6     9    1
     4     7    13    1
     5     1     4    2
     6    33    35   ar
     7    34    35   ar
     8     2    14    1
     9     2    21    1
    10     2     4   am
    11     3     4   am
    12     3     8    1
    13    15    16    1
    14    15    14    1
    15    16    17    1
    16    17    18    1
    17    18    19    1
    18    21    22    1
    19    22    23    1
    20    19    20    1
    21    23    24   ar
    22    23    25   ar
    23    24    27   ar
    24    25    28   ar
    25    30    31    1
    26    30    32    1
    27    30    35    1
    28    26    27   ar
    29    26    28   ar
    30     8     9   ar
    31     8    10   ar
    32     9    11   ar
    33    10    12   ar
    34    11    13   ar
    35    12    13   ar
    36     3     5    1
@<TRIPOS>MOLECULE
BDB50100444
 29 31 0 0 0
SMALL
GASTEIGER

@<TRIPOS>ATOM
      1 C          21.0737   38.6977   28.6546 C.3     1  UNL1        0.2118
      2 C          21.0887   38.3388   30.1367 C.3     1  UNL1        0.0960
      3 N          18.6029   38.3724   30.2336 N.ar    1  UNL1       -0.2129
      4 C          17.7083   38.8178   31.0950 C.ar    1  UNL1        0.2289
      5 O          18.2497   39.4004   32.2114 O.2     1  UNL1       -0.4392
      6 C          19.8137   38.6856   30.8088 C.ar    1  UNL1        0.0960
      7 C          19.5990   39.3107   32.0190 C.ar    1  UNL1        0.1387
      8 C          20.4628   39.8530   33.0814 C.3     1  UNL1        0.0738
      9 C          16.2507   38.7688   31.0184 C.ar    1  UNL1        0.0536
     10 C          15.4865   39.1695   32.1256 C.ar    1  UNL1        0.0052
     11 C          15.5818   38.3289   29.8653 C.ar    1  UNL1        0.0052
     12 C          13.4456   38.6931   30.9305 C.ar    1  UNL1        0.0346
     13 C          14.0901   39.1333   32.0844 C.ar    1  UNL1        0.0068
     14 C          14.1843   38.2909   29.8201 C.ar    1  UNL1        0.0068
     15 BR         11.5564   38.6425   30.8714 Br      1  UNL1       -0.0490
     16 O          22.4126   38.9897   28.2530 O.3     1  UNL1       -0.4750
     17 C          23.5295   42.9746   27.6558 C.ar    1  UNL1        0.1389
     18 C          22.7251   40.3153   28.1206 C.ar    1  UNL1        0.1388
     19 C          22.4021   42.7007   28.4251 C.ar    1  UNL1        0.0400
     20 C          24.2714   41.9032   27.1488 C.ar    1  UNL1        0.0400
     21 C          22.0007   41.3789   28.6586 C.ar    1  UNL1        0.0400
     22 C          23.8748   40.5841   27.3802 C.ar    1  UNL1        0.0400
     23 O          24.0215   44.2016   27.3213 O.3     1  UNL1       -0.4774
     24 C          24.9928   44.8958   28.1415 C.3     1  UNL1        0.1646
     25 C          24.7581   46.4073   28.0822 C.3     1  UNL1        0.0495
     26 C          24.6992   44.4350   29.5810 C.3     1  UNL1        0.0495
     27 C          26.4530   44.4015   27.8901 C.2     1  UNL1        0.0863
     28 O          26.9915   44.7528   26.8001 O.co2   1  UNL1       -0.5457
     29 O          26.9501   43.7008   28.8225 O.co2   1  UNL1       -0.5457
@<TRIPOS>UNITY_ATOM_ATTR
29 1
charge -1
@<TRIPOS>BOND
     1     3     4   ar
     2     3     6   ar
     3     4     5   ar
     4     4     9    1
     5     5     7   ar
     6     6     7   ar
     7     6     2    1
     8     7     8    1
     9    24    27    1
    10    24    23    1
    11    24    25    1
    12    24    26    1
    13    27    28   ar
    14    27    29   ar
    15     9    10   ar
    16     9    11   ar
    17    23    17    1
    18     2     1    1
    19    10    13   ar
    20    11    14   ar
    21    17    19   ar
    22    17    20   ar
    23    12    13   ar
    24    12    14   ar
    25    12    15    1
    26    18    21   ar
    27    18    22   ar
    28    18    16    1
    29     1    16    1
    30    19    21   ar
    31    20    22   ar
@<TRIPOS>MOLECULE
BDB28661
 30 32 0 0 0
SMALL
GASTEIGER

@<TRIPOS>ATOM
      1 C          22.4674   37.9923   28.8555 C.ar    1  UNL1        0.0334
      2 S          21.9914   38.4848   30.4256 S.2     1  UNL1       -0.0703
      3 C          21.3453   37.8520   28.0565 C.ar    1  UNL1        0.0628
      4 N          20.1447   38.1275   28.6876 N.ar    1  UNL1       -0.2429
      5 C          20.3353   38.4665   29.9492 C.ar    1  UNL1        0.1100
      6 C          21.3144   37.4426   26.6276 C.3     1  UNL1        0.0523
      7 C          19.2407   38.8180   30.8801 C.ar    1  UNL1        0.0238
      8 C          19.4523   39.3265   32.1716 C.ar    1  UNL1        0.0020
      9 C          17.9106   38.6324   30.4651 C.ar    1  UNL1        0.0020
     10 C          16.8329   38.9464   31.3012 C.ar    1  UNL1        0.0039
     11 C          17.0542   39.4637   32.5827 C.ar    1  UNL1        0.0714
     12 C          18.3753   39.6414   33.0127 C.ar    1  UNL1        0.0039
     13 C          15.8983   39.7812   33.4956 C.3     1  UNL1        0.4186
     14 F          14.8619   40.3903   32.8538 F       1  UNL1       -0.1659
     15 F          15.3752   38.6661   34.0748 F       1  UNL1       -0.1659
     16 F          16.2382   40.6116   34.5209 F       1  UNL1       -0.1659
     17 C          23.9082   37.7926   28.5143 C.3     1  UNL1        0.0961
     18 S          24.3469   38.7353   27.0152 S.3     1  UNL1       -0.1083
     19 C          25.8093   42.0727   28.8225 C.ar    1  UNL1        0.0371
     20 C          24.6817   42.8879   28.9582 C.ar    1  UNL1        0.1351
     21 C          23.4430   42.4443   28.4615 C.ar    1  UNL1        0.0126
     22 C          23.3508   41.1783   27.8597 C.ar    1  UNL1        0.0049
     23 C          24.4746   40.3556   27.7509 C.ar    1  UNL1        0.0254
     24 C          25.7064   40.8133   28.2214 C.ar    1  UNL1        0.0093
     25 C          22.2165   43.3055   28.5805 C.3     1  UNL1        0.0342
     26 O          24.6803   44.1290   29.5403 O.3     1  UNL1       -0.4697
     27 C          25.6164   45.0929   29.0419 C.3     1  UNL1        0.2468
     28 C          25.1783   45.5173   27.6302 C.2     1  UNL1        0.0940
     29 O          25.9490   45.1582   26.6927 O.co2   1  UNL1       -0.5454
     30 O          24.1188   46.2063   27.5774 O.co2   1  UNL1       -0.5454
@<TRIPOS>UNITY_ATOM_ATTR
29 1
charge -1
@<TRIPOS>BOND
     1    19    20   ar
     2    19    24   ar
     3    20    21   ar
     4    20    26    1
     5    21    22   ar
     6    21    25    1
     7    22    23   ar
     8    23    24   ar
     9    23    18    1
    10    26    27    1
    11    27    28    1
    12    28    29   ar
    13    28    30   ar
    14    18    17    1
    15    17     1    1
    16     1     2   ar
    17     1     3   ar
    18     2     5   ar
    19     3     4   ar
    20     3     6    1
    21     4     5   ar
    22     5     7    1
    23     7     8   ar
    24     7     9   ar
    25     8    12   ar
    26     9    10   ar
    27    10    11   ar
    28    11    12   ar
    29    11    13    1
    30    13    14    1
    31    13    15    1
    32    13    16    1
@<TRIPOS>MOLECULE
BDB50145719
 34 37 0 0 0
SMALL
GASTEIGER

@<TRIPOS>ATOM
      1 C          23.7989   38.2200   27.6808 C.ar    1  UNL1       -0.0181
      2 C          21.2194   37.7899   28.7357 C.ar    1  UNL1        0.1385
      3 C          22.6933   38.0851   26.8325 C.ar    1  UNL1       -0.0010
      4 C          23.5990   38.1381   29.0633 C.ar    1  UNL1       -0.0010
      5 C          21.4113   37.8708   27.3547 C.ar    1  UNL1        0.0366
      6 C          22.3201   37.9264   29.5843 C.ar    1  UNL1        0.0366
      7 C          25.1867   38.4536   27.1116 C.3     1  UNL1        0.0718
      8 C          25.6914   39.9274   27.1463 C.3     1  UNL1        0.1685
      9 C          26.1236   40.3095   28.5675 C.3     1  UNL1        0.0498
     10 C          26.8439   39.8758   26.0904 C.2     1  UNL1        0.0866
     11 O          26.4745   39.9788   24.8823 O.co2   1  UNL1       -0.5457
     12 O          28.0190   39.7475   26.5420 O.co2   1  UNL1       -0.5457
     13 O          24.5891   40.7465   26.6860 O.3     1  UNL1       -0.4771
     14 C          24.1869   41.8720   27.3434 C.ar    1  UNL1        0.1387
     15 C          23.0089   41.7103   28.0803 C.ar    1  UNL1        0.0369
     16 C          24.8060   43.1199   27.3291 C.ar    1  UNL1        0.0369
     17 C          24.2629   44.1861   28.0550 C.ar    1  UNL1        0.0031
     18 C          22.4647   42.7709   28.8075 C.ar    1  UNL1        0.0031
     19 C          23.0952   44.0117   28.7959 C.ar    1  UNL1        0.0002
     20 O          20.0240   37.5884   29.3730 O.3     1  UNL1       -0.4750
     21 C          19.3340   38.7536   29.8262 C.3     1  UNL1        0.2118
     22 C          18.9706   38.5457   31.2934 C.3     1  UNL1        0.0960
     23 N          16.5754   38.6762   30.6481 N.ar    1  UNL1       -0.2167
     24 C          15.4813   39.1271   31.2266 C.ar    1  UNL1        0.2044
     25 O          15.6733   39.6524   32.4740 O.2     1  UNL1       -0.4430
     26 C          17.5629   38.9155   31.5752 C.ar    1  UNL1        0.0957
     27 C          17.0156   39.5153   32.6900 C.ar    1  UNL1        0.1383
     28 C          17.5441   39.9989   33.9753 C.3     1  UNL1        0.0738
     29 C          14.0829   39.1417   30.7072 C.3     1  UNL1        0.0766
     30 C          13.0820   39.3486   31.8529 C.3     1  UNL1        0.0092
     31 C          13.7773   37.8479   29.9389 C.3     1  UNL1        0.0092
     32 C          12.3340   37.8172   29.4414 C.3     1  UNL1        0.0005
     33 C          11.6393   39.3141   31.3517 C.3     1  UNL1        0.0005
     34 C          11.3419   38.0319   30.5807 C.3     1  UNL1        0.0000
@<TRIPOS>UNITY_ATOM_ATTR
12 1
charge -1
@<TRIPOS>BOND
     1    23    24   ar
     2    23    26   ar
     3    24    25   ar
     4    24    29    1
     5    25    27   ar
     6    26    27   ar
     7    26    22    1
     8    27    28    1
     9     8    10    1
    10     8    13    1
    11     8     7    1
    12     8     9    1
    13    10    11   ar
    14    10    12   ar
    15    13    14    1
    16     7     1    1
    17    29    30    1
    18    29    31    1
    19    22    21    1
    20     1     3   ar
    21     1     4   ar
    22    14    15   ar
    23    14    16   ar
    24     2     5   ar
    25     2     6   ar
    26     2    20    1
    27    21    20    1
    28     3     5   ar
    29     4     6   ar
    30    30    33    1
    31    31    32    1
    32    15    18   ar
    33    16    17   ar
    34    32    34    1
    35    33    34    1
    36    17    19   ar
    37    18    19   ar
@<TRIPOS>MOLECULE
BDB50135773
 32 34 0 0 0
SMALL
GASTEIGER

@<TRIPOS>ATOM
      1 N          13.7215   37.7569   28.7092 N.ar    1  UNL1       -0.2651
      2 C          13.2755   37.6241   27.4150 C.ar    1  UNL1        0.3484
      3 N          11.9012   37.4127   27.5266 N.ar    1  UNL1       -0.1966
      4 N          11.5203   37.4190   28.8448 N.ar    1  UNL1       -0.1520
      5 C          12.6317   37.6193   29.4937 C.ar    1  UNL1        0.1437
      6 O          13.9353   37.6782   26.3880 O.2     1  UNL1       -0.2447
      7 C          15.0940   37.9940   29.0984 C.3     1  UNL1        0.1363
      8 C          10.9708   37.1976   26.4454 C.3     1  UNL1        0.1586
      9 C          10.6525   39.6900   23.5596 C.ar    1  UNL1       -0.0260
     10 C          10.6929   38.4665   25.6786 C.ar    1  UNL1        0.0019
     11 C          10.8908   38.5141   24.2914 C.ar    1  UNL1       -0.0069
     12 C          10.2085   40.8441   24.2349 C.ar    1  UNL1       -0.0258
     13 C          10.0283   40.7964   25.6261 C.ar    1  UNL1       -0.0048
     14 C          10.2707   39.6230   26.3420 C.ar    1  UNL1       -0.0027
     15 C          10.8800   39.6889   22.0725 C.3     1  UNL1        0.0307
     16 C           9.9366   42.1278   23.5007 C.3     1  UNL1        0.0307
     17 C          12.7430   37.7008   30.9912 C.3     1  UNL1        0.0662
     18 C          12.3384   39.0633   31.5414 C.3     1  UNL1        0.0126
     19 C          13.3459   40.1442   31.1504 C.3     1  UNL1        0.0268
     20 C          16.6098   40.2449   33.9476 C.ar    1  UNL1        0.1387
     21 C          14.5129   40.1681   32.1039 C.ar    1  UNL1       -0.0220
     22 C          15.8625   39.0788   33.7970 C.ar    1  UNL1        0.0366
     23 C          16.3442   41.3606   33.1590 C.ar    1  UNL1        0.0366
     24 C          14.8090   39.0425   32.8850 C.ar    1  UNL1       -0.0012
     25 C          15.2880   41.3268   32.2476 C.ar    1  UNL1       -0.0012
     26 O          17.6614   40.2294   34.8132 O.3     1  UNL1       -0.4774
     27 C          18.9609   39.8946   34.2640 C.3     1  UNL1        0.1646
     28 C          19.0342   39.7504   32.7335 C.3     1  UNL1        0.0495
     29 C          19.4614   38.6098   34.9327 C.3     1  UNL1        0.0495
     30 C          19.9017   41.1013   34.6288 C.2     1  UNL1        0.0863
     31 O          20.9433   40.8197   35.2913 O.co2   1  UNL1       -0.5457
     32 O          19.5157   42.2382   34.2213 O.co2   1  UNL1       -0.5457
@<TRIPOS>UNITY_ATOM_ATTR
32 1
charge -1
@<TRIPOS>BOND
     1     1     2   ar
     2     1     5   ar
     3     1     7    1
     4     2     3   ar
     5     2     6    2
     6     3     4   ar
     7     3     8    1
     8     4     5   ar
     9     5    17    1
    10    27    30    1
    11    27    26    1
    12    27    28    1
    13    27    29    1
    14    30    31   ar
    15    30    32   ar
    16     8    10    1
    17    26    20    1
    18     9    11   ar
    19     9    12   ar
    20     9    15    1
    21    10    11   ar
    22    10    14   ar
    23    12    13   ar
    24    12    16    1
    25    13    14   ar
    26    20    22   ar
    27    20    23   ar
    28    17    18    1
    29    21    24   ar
    30    21    25   ar
    31    21    19    1
    32    22    24   ar
    33    23    25   ar
    34    18    19    1
@<TRIPOS>MOLECULE
BDB50135780
 31 33 0 0 0
SMALL
GASTEIGER

@<TRIPOS>ATOM
      1 C          13.1827   36.7781   27.7133 C.3     1  UNL1        0.0680
      2 C          15.2497   38.5632   29.9359 C.ar    1  UNL1        0.3151
      3 N          14.0403   38.6623   30.5636 N.ar    1  UNL1       -0.1986
      4 N          15.1361   37.8566   28.8402 N.ar    1  UNL1       -0.1780
      5 N          13.0823   38.0454   29.8397 N.ar    1  UNL1       -0.1504
      6 C          13.7973   37.5623   28.8127 C.ar    1  UNL1        0.1634
      7 O          16.4100   39.0734   30.3123 O.3     1  UNL1       -0.4786
      8 H          16.4670   39.5761   31.1009 H       1  UNL1        0.2953
      9 C          13.7070   39.2873   31.8306 C.3     1  UNL1        0.1585
     10 C          14.9189   39.8415   32.5341 C.ar    1  UNL1        0.0022
     11 C          17.1743   40.8724   33.8786 C.ar    1  UNL1       -0.0219
     12 C          15.6714   39.0277   33.3920 C.ar    1  UNL1       -0.0027
     13 C          15.3010   41.1801   32.3661 C.ar    1  UNL1       -0.0027
     14 C          16.4239   41.6865   33.0241 C.ar    1  UNL1       -0.0045
     15 C          16.7948   39.5369   34.0500 C.ar    1  UNL1       -0.0045
     16 C          18.3988   41.4086   34.5590 C.3     1  UNL1        0.0310
     17 C          11.6644   36.9516   27.6553 C.3     1  UNL1        0.0127
     18 C          11.1151   36.5204   26.2938 C.3     1  UNL1        0.0268
     19 C          10.2046   39.9046   23.7492 C.ar    1  UNL1        0.1387
     20 C          10.7974   37.6995   25.4113 C.ar    1  UNL1       -0.0220
     21 C          10.3680   40.0657   25.1301 C.ar    1  UNL1        0.0366
     22 C          10.3300   38.6299   23.2105 C.ar    1  UNL1        0.0366
     23 C          10.6593   38.9785   25.9566 C.ar    1  UNL1       -0.0012
     24 C          10.6237   37.5342   24.0331 C.ar    1  UNL1       -0.0012
     25 O           9.9339   41.0645   23.0939 O.3     1  UNL1       -0.4774
     26 C          10.8963   41.8710   22.3929 C.3     1  UNL1        0.1646
     27 C          12.1620   42.1337   23.2175 C.3     1  UNL1        0.0495
     28 C          10.2933   43.1589   21.8215 C.3     1  UNL1        0.0495
     29 C          11.3314   40.9845   21.1554 C.2     1  UNL1        0.0863
     30 O          10.4163   40.6991   20.3251 O.co2   1  UNL1       -0.5457
     31 O          12.5481   40.6311   21.1223 O.co2   1  UNL1       -0.5457
@<TRIPOS>UNITY_ATOM_ATTR
31 1
charge -1
@<TRIPOS>BOND
     1     2     3   ar
     2     2     4   ar
     3     2     7    1
     4     3     5   ar
     5     3     9    1
     6     4     6   ar
     7     5     6   ar
     8     6     1    1
     9    26    29    1
    10    26    25    1
    11    26    27    1
    12    26    28    1
    13    29    30   ar
    14    29    31   ar
    15     9    10    1
    16    25    19    1
    17    19    21   ar
    18    19    22   ar
    19    10    12   ar
    20    10    13   ar
    21    20    23   ar
    22    20    24   ar
    23    20    18    1
    24    11    14   ar
    25    11    15   ar
    26    11    16    1
    27     1    17    1
    28    21    23   ar
    29    22    24   ar
    30    12    15   ar
    31    13    14   ar
    32    17    18    1
    33     7     8    1
@<TRIPOS>MOLECULE
BDB50179828
 35 37 0 0 0
SMALL
GASTEIGER

@<TRIPOS>ATOM
      1 C          22.2313   38.1177   30.3076 C.3     1  UNL1        0.2093
      2 C          23.6135   37.5985   30.6840 C.3     1  UNL1        0.0946
      3 C          24.5158   37.4565   29.4652 C.3     1  UNL1        0.2093
      4 O          23.8008   37.9473   28.3312 O.3     1  UNL1       -0.4753
      5 C          25.2420   41.5810   26.8299 C.ar    1  UNL1       -0.0216
      6 C          26.0764   40.4826   27.0776 C.ar    1  UNL1       -0.0011
      7 C          25.5520   39.2892   27.5813 C.ar    1  UNL1        0.0366
      8 C          24.1850   39.1653   27.8394 C.ar    1  UNL1        0.1385
      9 C          23.3456   40.2482   27.5816 C.ar    1  UNL1        0.0366
     10 C          23.8714   41.4428   27.0762 C.ar    1  UNL1       -0.0011
     11 C          25.8160   42.8612   26.2664 C.3     1  UNL1        0.0315
     12 C          26.0785   44.0520   27.2253 C.3     1  UNL1        0.0361
     13 C          26.9093   43.4859   28.4114 C.3     1  UNL1        0.0059
     14 C          27.0956   45.1016   26.6892 C.2     1  UNL1        0.0500
     15 O          28.3083   44.8951   26.9838 O.co2   1  UNL1       -0.5492
     16 O          26.6065   46.0353   25.9901 O.co2   1  UNL1       -0.5492
     17 C          24.7931   44.6669   27.8336 C.3     1  UNL1        0.0055
     18 C          24.6253   44.5614   29.3449 C.3     1  UNL1        0.0004
     19 O          21.6892   38.7777   31.4512 O.3     1  UNL1       -0.4744
     20 C          20.3297   38.9153   31.5289 C.ar    1  UNL1        0.1520
     21 C          19.4369   38.5852   30.5093 C.ar    1  UNL1        0.0753
     22 C          18.4340   39.6063   32.9097 C.ar    1  UNL1        0.0174
     23 C          19.8141   39.4271   32.7302 C.ar    1  UNL1        0.0917
     24 C          17.5315   39.2778   31.8911 C.ar    1  UNL1        0.0398
     25 C          18.0639   38.7706   30.7051 C.ar    1  UNL1        0.1517
     26 O          17.2327   38.4116   29.6241 O.2     1  UNL1       -0.4209
     27 C          15.8576   38.5476   29.6943 C.ar    1  UNL1        0.3459
     28 C          15.3130   39.0834   30.9511 C.ar    1  UNL1        0.0862
     29 C          16.0739   39.4355   31.9999 C.ar    1  UNL1        0.0808
     30 O          15.1186   38.2418   28.7667 O.2     1  UNL1       -0.2445
     31 CL         20.8598   39.8600   34.0403 Cl      1  UNL1       -0.0791
     32 C          15.4686   39.9777   33.2600 C.3     1  UNL1        0.4189
     33 F          15.5959   39.1122   34.2975 F       1  UNL1       -0.1659
     34 F          14.1408   40.2346   33.1323 F       1  UNL1       -0.1659
     35 F          16.0516   41.1434   33.6412 F       1  UNL1       -0.1659
@<TRIPOS>UNITY_ATOM_ATTR
15 1
charge -1
@<TRIPOS>BOND
     1     5     6   ar
     2     5    10   ar
     3     5    11    1
     4     6     7   ar
     5     7     8   ar
     6     8     9   ar
     7     8     4    1
     8     9    10   ar
     9     4     3    1
    10     3     2    1
    11     2     1    1
    12     1    19    1
    13    19    20    1
    14    20    21   ar
    15    20    23   ar
    16    21    25   ar
    17    22    23   ar
    18    22    24   ar
    19    23    31    1
    20    11    12    1
    21    12    14    1
    22    12    13    1
    23    12    17    1
    24    14    15   ar
    25    14    16   ar
    26    17    18    1
    27    24    25   ar
    28    24    29   ar
    29    25    26   ar
    30    26    27   ar
    31    27    28   ar
    32    27    30    2
    33    28    29   ar
    34    29    32    1
    35    32    33    1
    36    32    34    1
    37    32    35    1
@<TRIPOS>MOLECULE
BDB50179840
 31 32 0 0 0
SMALL
GASTEIGER

@<TRIPOS>ATOM
      1 C          11.4751   36.2434   27.1616 C.3     1  UNL1        0.2093
      2 O          11.0503   36.3187   25.8009 O.3     1  UNL1       -0.4753
      3 C          10.2435   40.0175   24.0184 C.ar    1  UNL1       -0.0216
      4 C          10.5460   39.9740   25.3848 C.ar    1  UNL1       -0.0011
      5 C          10.8218   38.7600   26.0225 C.ar    1  UNL1        0.0366
      6 C          10.8012   37.5673   25.3001 C.ar    1  UNL1        0.1385
      7 C          10.5064   37.6045   23.9355 C.ar    1  UNL1        0.0366
      8 C          10.2296   38.8172   23.2982 C.ar    1  UNL1       -0.0011
      9 C           9.9404   41.3342   23.3311 C.3     1  UNL1        0.0315
     10 C          11.0139   41.8659   22.3471 C.3     1  UNL1        0.0361
     11 C          12.3401   42.1575   23.0773 C.3     1  UNL1        0.0059
     12 C          11.2968   40.9068   21.1506 C.2     1  UNL1        0.0500
     13 O          12.5044   40.5693   20.9863 O.co2   1  UNL1       -0.5492
     14 O          10.2933   40.5883   20.4496 O.co2   1  UNL1       -0.5492
     15 C          10.5412   43.1955   21.6901 C.3     1  UNL1        0.0055
     16 C          11.1219   43.5091   20.3144 C.3     1  UNL1        0.0004
     17 C          12.9564   35.8887   27.1715 C.3     1  UNL1        0.0946
     18 C          13.7909   36.9710   27.8438 C.3     1  UNL1        0.2093
     19 O          13.1702   37.2894   29.0879 O.3     1  UNL1       -0.4745
     20 C          13.8141   38.1687   29.9190 C.ar    1  UNL1        0.1490
     21 C          13.0588   38.7196   30.9645 C.ar    1  UNL1        0.0912
     22 C          13.6295   39.6300   31.8615 C.ar    1  UNL1        0.0105
     23 C          14.9732   40.0006   31.7332 C.ar    1  UNL1       -0.0127
     24 C          15.7269   39.4523   30.6899 C.ar    1  UNL1       -0.0008
     25 C          15.1552   38.5434   29.7932 C.ar    1  UNL1        0.0375
     26 CL         11.3930   38.3052   31.1855 Cl      1  UNL1       -0.0791
     27 C          15.5889   40.9992   32.6821 C.3     1  UNL1        0.1297
     28 C          16.1630   40.3556   33.9298 C.3     1  UNL1        0.4017
     29 F          15.5496   40.8457   35.0319 F       1  UNL1       -0.1697
     30 F          17.4840   40.6036   34.0590 F       1  UNL1       -0.1697
     31 F          15.9844   39.0163   33.9317 F       1  UNL1       -0.1697
@<TRIPOS>UNITY_ATOM_ATTR
13 1
charge -1
@<TRIPOS>BOND
     1     3     4   ar
     2     3     8   ar
     3     3     9    1
     4     4     5   ar
     5     5     6   ar
     6     6     7   ar
     7     6     2    1
     8     7     8   ar
     9     2     1    1
    10     1    17    1
    11    17    18    1
    12    18    19    1
    13    19    20    1
    14    20    21   ar
    15    20    25   ar
    16    21    22   ar
    17    21    26    1
    18    22    23   ar
    19    23    24   ar
    20    23    27    1
    21    24    25   ar
    22     9    10    1
    23    10    12    1
    24    10    11    1
    25    10    15    1
    26    12    13   ar
    27    12    14   ar
    28    15    16    1
    29    27    28    1
    30    28    29    1
    31    28    30    1
    32    28    31    1
@<TRIPOS>MOLECULE
BDB50168554
 31 33 0 0 0
SMALL
GASTEIGER

@<TRIPOS>ATOM
      1 C          11.4598   36.1269   26.9922 C.3     1  UNL1        0.2093
      2 C          12.9719   36.0981   27.1852 C.3     1  UNL1        0.0946
      3 C          13.5038   37.4286   27.7023 C.3     1  UNL1        0.2093
      4 O          13.0592   37.5919   29.0486 O.3     1  UNL1       -0.4745
      5 C          15.5748   39.4181   31.9128 C.ar    1  UNL1       -0.0218
      6 C          13.3769   38.6545   31.1331 C.ar    1  UNL1        0.0912
      7 C          14.1873   39.2636   32.1005 C.ar    1  UNL1        0.0102
      8 C          13.9231   38.1745   29.9380 C.ar    1  UNL1        0.1490
      9 C          16.1047   38.9299   30.7079 C.ar    1  UNL1       -0.0011
     10 C          15.2958   38.3188   29.7362 C.ar    1  UNL1        0.0375
     11 CL         11.6840   38.5160   31.4661 Cl      1  UNL1       -0.0791
     12 C          16.4405   40.0979   33.0044 C.3     1  UNL1        0.0190
     13 C          16.1154   41.6098   33.0229 C.3     1  UNL1        0.0044
     14 C          16.0750   39.4857   34.3771 C.3     1  UNL1        0.0044
     15 C          17.9731   39.9105   32.7560 C.3     1  UNL1        0.0040
     16 C          18.7649   39.1819   33.8393 C.3     1  UNL1        0.0003
     17 O          11.1964   36.2570   25.5955 O.3     1  UNL1       -0.4752
     18 O          12.1159   40.5035   23.5368 O.3     1  UNL1       -0.4776
     19 C          11.5745   41.6245   22.7990 C.3     1  UNL1        0.1648
     20 C          11.1989   39.6634   24.1104 C.ar    1  UNL1        0.1377
     21 C          11.6929   38.4243   24.5331 C.ar    1  UNL1        0.0734
     22 C           9.8585   40.0027   24.3113 C.ar    1  UNL1        0.0121
     23 C          10.4561   42.3084   23.5894 C.3     1  UNL1        0.0503
     24 C           9.3210   41.3293   23.8627 C.3     1  UNL1        0.0334
     25 C           9.0080   39.0705   24.9169 C.ar    1  UNL1        0.0018
     26 C          10.8437   37.4991   25.1420 C.ar    1  UNL1        0.1416
     27 C           9.5007   37.8310   25.3316 C.ar    1  UNL1        0.0368
     28 C          12.7335   42.6080   22.6001 C.3     1  UNL1        0.0495
     29 C          11.2140   41.1964   21.3386 C.2     1  UNL1        0.0863
     30 O          12.0150   40.3731   20.8033 O.co2   1  UNL1       -0.5457
     31 O          10.1534   41.6894   20.8535 O.co2   1  UNL1       -0.5457
@<TRIPOS>UNITY_ATOM_ATTR
31 1
charge -1
@<TRIPOS>BOND
     1    18    19    1
     2    18    20    1
     3    19    29    1
     4    19    23    1
     5    19    28    1
     6    20    21   ar
     7    20    22   ar
     8    29    30   ar
     9    29    31   ar
    10     5     7   ar
    11     5    12    1
    12     5     9   ar
    13    21    26   ar
    14     6     7   ar
    15     6     8   ar
    16     6    11    1
    17    22    24    1
    18    22    25   ar
    19    12    15    1
    20    12    13    1
    21    12    14    1
    22     8    10   ar
    23     8     4    1
    24    23    24    1
    25     9    10   ar
    26    25    27   ar
    27    26    27   ar
    28    26    17    1
    29     4     3    1
    30     2     3    1
    31     2     1    1
    32    17     1    1
    33    15    16    1
@<TRIPOS>MOLECULE
BDB50157055
 33 35 0 0 0
SMALL
GASTEIGER

@<TRIPOS>ATOM
      1 C          12.8621   37.1670   27.4775 C.3     1  UNL1        0.0946
      2 C          11.5050   36.5096   27.2629 C.3     1  UNL1        0.2093
      3 O          11.1714   36.6411   25.8829 O.3     1  UNL1       -0.4745
      4 C          10.6768   38.0356   24.0398 C.ar    1  UNL1        0.0912
      5 C          10.8397   37.8903   25.4238 C.ar    1  UNL1        0.1490
      6 C          10.3336   39.2753   23.4828 C.ar    1  UNL1        0.0103
      7 C          10.1441   40.4054   24.2951 C.ar    1  UNL1       -0.0183
      8 C          10.6566   39.0146   26.2337 C.ar    1  UNL1        0.0375
      9 CL         10.8859   36.6931   22.9655 Cl      1  UNL1       -0.0791
     10 C          10.3124   40.2546   25.6748 C.ar    1  UNL1       -0.0010
     11 C           9.7570   41.7139   23.6243 C.3     1  UNL1        0.0617
     12 C          10.7360   42.3220   22.6022 C.3     1  UNL1        0.1556
     13 C          12.2248   42.0927   22.9958 C.2     1  UNL1        0.0777
     14 O          12.8249   41.1906   22.3422 O.co2   1  UNL1       -0.5467
     15 O          12.6693   42.8324   23.9217 O.co2   1  UNL1       -0.5467
     16 O          10.4753   41.8770   21.2479 O.3     1  UNL1       -0.3477
     17 C          10.7327   42.8387   20.2341 C.3     1  UNL1        0.1745
     18 C          13.0762   37.5639   28.9327 C.3     1  UNL1        0.2093
     19 O          14.4837   37.6074   29.1702 O.3     1  UNL1       -0.4753
     20 C          16.0835   40.0309   32.1642 C.ar    1  UNL1        0.0391
     21 C          16.8928   39.3795   31.2299 C.ar    1  UNL1        0.0063
     22 C          14.6948   39.8570   32.1180 C.ar    1  UNL1        0.0063
     23 C          14.9199   38.4166   30.1839 C.ar    1  UNL1        0.1386
     24 C          14.1147   39.0567   31.1274 C.ar    1  UNL1        0.0370
     25 C          16.3075   38.5824   30.2428 C.ar    1  UNL1        0.0370
     26 C          16.6537   40.8658   33.2505 C.2     1  UNL1        0.1955
     27 O          16.0470   41.8729   33.6069 O.2     1  UNL1       -0.2866
     28 C          17.9315   40.5183   33.9176 C.ar    1  UNL1        0.0390
     29 C          18.7692   41.5006   34.4591 C.ar    1  UNL1        0.0032
     30 C          18.2684   39.1656   34.0465 C.ar    1  UNL1        0.0032
     31 C          19.9539   41.1277   35.0967 C.ar    1  UNL1        0.0001
     32 C          19.4536   38.7983   34.6850 C.ar    1  UNL1        0.0001
     33 C          20.2966   39.7791   35.2072 C.ar    1  UNL1        0.0000
@<TRIPOS>UNITY_ATOM_ATTR
15 1
charge -1
@<TRIPOS>BOND
     1    26    20    1
     2    26    27    2
     3    26    28    1
     4    13    12    1
     5    13    14   ar
     6    13    15   ar
     7     4     5   ar
     8     4     6   ar
     9     4     9    1
    10    20    21   ar
    11    20    22   ar
    12    12    11    1
    13    12    16    1
    14     5     8   ar
    15     5     3    1
    16     6     7   ar
    17     7    11    1
    18     7    10   ar
    19    28    29   ar
    20    28    30   ar
    21    21    25   ar
    22    22    24   ar
    23     8    10   ar
    24    23    24   ar
    25    23    25   ar
    26    23    19    1
    27    16    17    1
    28     3     2    1
    29     1     2    1
    30     1    18    1
    31    19    18    1
    32    29    31   ar
    33    30    32   ar
    34    31    33   ar
    35    32    33   ar
@<TRIPOS>MOLECULE
BDB50157057
 32 34 0 0 0
SMALL
GASTEIGER

@<TRIPOS>ATOM
      1 C          22.0137   37.7127   26.2808 C.3     1  UNL1        0.0802
      2 C          20.9186   38.2927   28.6456 C.1     1  UNL1       -0.0644
      3 C          21.4150   38.0384   27.5815 C.1     1  UNL1       -0.0863
      4 C          20.3182   38.5847   29.9108 C.ar    1  UNL1        0.0416
      5 C          19.1399   39.1805   32.3870 C.ar    1  UNL1       -0.0193
      6 C          18.9427   38.4231   30.0872 C.ar    1  UNL1        0.0079
      7 C          21.1065   39.0439   30.9674 C.ar    1  UNL1        0.0079
      8 C          20.5185   39.3427   32.1986 C.ar    1  UNL1       -0.0036
      9 C          18.3555   38.7217   31.3191 C.ar    1  UNL1       -0.0036
     10 C          18.5010   39.5280   33.7147 C.3     1  UNL1        0.0616
     11 C          17.9126   40.9447   33.7255 C.3     1  UNL1        0.1556
     12 C          16.3627   40.9193   33.7514 C.2     1  UNL1        0.0777
     13 O          15.8411   39.7676   33.7010 O.co2   1  UNL1       -0.5467
     14 O          15.7935   42.0473   33.8217 O.co2   1  UNL1       -0.5467
     15 O          18.4624   41.7552   34.7940 O.3     1  UNL1       -0.3477
     16 C          19.6358   41.2379   35.4052 C.3     1  UNL1        0.1745
     17 C          23.3629   38.4017   26.1047 C.3     1  UNL1        0.0613
     18 C          24.4996   37.5575   26.6768 C.3     1  UNL1        0.2064
     19 O          24.9373   38.1719   27.8883 O.3     1  UNL1       -0.4754
     20 C          25.5893   35.6064   31.1033 C.ar    1  UNL1        0.1455
     21 C          25.0733   37.3636   28.9842 C.ar    1  UNL1        0.1388
     22 C          26.4133   35.5957   29.9767 C.ar    1  UNL1        0.0406
     23 C          24.4958   36.4705   31.1603 C.ar    1  UNL1        0.0406
     24 C          24.2419   37.3540   30.1056 C.ar    1  UNL1        0.0400
     25 C          26.1566   36.4795   28.9263 C.ar    1  UNL1        0.0400
     26 O          25.7522   34.7409   32.1619 O.3     1  UNL1       -0.4535
     27 C          26.5240   35.1718   33.2166 C.ar    1  UNL1        0.1453
     28 C          26.9987   34.2996   34.2000 C.ar    1  UNL1        0.0375
     29 C          26.8900   36.5180   33.2324 C.ar    1  UNL1        0.0375
     30 C          27.6995   37.0043   34.2582 C.ar    1  UNL1        0.0031
     31 C          27.8082   34.7895   35.2250 C.ar    1  UNL1        0.0031
     32 C          28.1548   36.1418   35.2563 C.ar    1  UNL1        0.0002
@<TRIPOS>UNITY_ATOM_ATTR
14 1
charge -1
@<TRIPOS>BOND
     1    12    11    1
     2    12    13   ar
     3    12    14   ar
     4     2     3    3
     5     2     4    1
     6     3     1    1
     7    11    10    1
     8    11    15    1
     9    10     5    1
    10    26    20    1
    11    26    27    1
    12     4     6   ar
    13     4     7   ar
    14     5     8   ar
    15     5     9   ar
    16    20    22   ar
    17    20    23   ar
    18    21    24   ar
    19    21    25   ar
    20    21    19    1
    21    27    28   ar
    22    27    29   ar
    23     6     9   ar
    24     7     8   ar
    25    15    16    1
    26    22    25   ar
    27    23    24   ar
    28    19    18    1
    29     1    17    1
    30    18    17    1
    31    28    31   ar
    32    29    30   ar
    33    30    32   ar
    34    31    32   ar
@<TRIPOS>MOLECULE
BDB50169251
 31 33 0 0 0
SMALL
GASTEIGER

@<TRIPOS>ATOM
      1 C          25.3291   38.5366   27.4191 C.ar    1  UNL1        0.0952
      2 C          25.0112   37.5799   28.3651 C.ar    1  UNL1        0.1765
      3 C          26.4918   38.0381   26.7014 C.ar    1  UNL1        0.2917
      4 O          25.8654   36.5023   28.3220 O.2     1  UNL1       -0.3727
      5 N          26.7661   36.8295   27.2745 N.ar    1  UNL1       -0.1562
      6 C          23.9547   37.7487   29.2518 C.ar    1  UNL1        0.0486
      7 C          23.2021   38.9428   29.1314 C.ar    1  UNL1        0.1343
      8 C          24.6325   39.7206   27.3019 C.ar    1  UNL1        0.0067
      9 C          23.5566   39.9464   28.1838 C.ar    1  UNL1        0.0118
     10 O          27.0680   38.6118   25.7953 O.2     1  UNL1       -0.2642
     11 C          27.7976   35.8618   26.9947 C.3     1  UNL1        0.1760
     12 O          22.1992   39.1804   30.0471 O.3     1  UNL1       -0.4696
     13 C          21.1107   38.2210   29.9848 C.3     1  UNL1        0.2242
     14 C          19.9718   38.6665   30.8872 C.ar    1  UNL1        0.0226
     15 C          17.8592   39.5349   32.5569 C.ar    1  UNL1       -0.0225
     16 C          18.6374   38.3891   30.5584 C.ar    1  UNL1       -0.0008
     17 C          20.2389   39.3692   32.0686 C.ar    1  UNL1       -0.0008
     18 C          19.1949   39.7996   32.8924 C.ar    1  UNL1       -0.0045
     19 C          17.5940   38.8207   31.3807 C.ar    1  UNL1       -0.0045
     20 C          16.7091   39.9983   33.4317 C.3     1  UNL1        0.0224
     21 C          16.3597   41.4661   33.1743 C.3     1  UNL1        0.0047
     22 C          15.4769   39.1049   33.2575 C.3     1  UNL1        0.0047
     23 C          20.5479   38.1223   28.5326 C.2     1  UNL1        0.0943
     24 O          20.1808   39.2300   28.0318 O.co2   1  UNL1       -0.5452
     25 O          20.5123   36.9726   28.0000 O.co2   1  UNL1       -0.5452
     26 C          23.6916   36.7121   30.3138 C.3     1  UNL1        0.0326
     27 C          24.6090   36.8752   31.5263 C.3     1  UNL1        0.0049
     28 C          25.2903   35.5637   31.8856 C.3     1  UNL1        0.0004
     29 C          22.8557   41.2870   28.1196 C.3     1  UNL1        0.0294
     30 C          23.8256   42.4643   28.2412 C.3     1  UNL1        0.0048
     31 C          23.1480   43.6792   28.8551 C.3     1  UNL1        0.0004
@<TRIPOS>UNITY_ATOM_ATTR
25 1
charge -1
@<TRIPOS>BOND
     1     1     2   ar
     2     1     3   ar
     3     1     8   ar
     4     2     4   ar
     5     2     6   ar
     6     3     5   ar
     7     3    10    2
     8     4     5   ar
     9     5    11    1
    10     6     7   ar
    11     6    26    1
    12     7    12    1
    13     7     9   ar
    14     8     9   ar
    15    12    13    1
    16     9    29    1
    17    13    23    1
    18    13    14    1
    19    23    24   ar
    20    23    25   ar
    21    14    16   ar
    22    14    17   ar
    23    15    18   ar
    24    15    19   ar
    25    15    20    1
    26    16    19   ar
    27    17    18   ar
    28    20    21    1
    29    20    22    1
    30    26    27    1
    31    29    30    1
    32    27    28    1
    33    30    31    1
@<TRIPOS>MOLECULE
BDB50169253
 30 31 0 0 0
SMALL
GASTEIGER

@<TRIPOS>ATOM
      1 C          23.7316   38.0990   28.9576 C.ar    1  UNL1        0.1313
      2 C          26.0465   36.8054   28.0069 C.ar    1  UNL1        0.0343
      3 C          24.1657   38.3281   27.6374 C.ar    1  UNL1        0.0116
      4 C          24.4813   37.2769   29.8222 C.ar    1  UNL1        0.0116
      5 C          25.3172   37.6626   27.1748 C.ar    1  UNL1        0.0015
      6 C          25.6284   36.6273   29.3286 C.ar    1  UNL1        0.0015
      7 C          27.2663   36.1325   27.4612 C.2     1  UNL1        0.1730
      8 O          27.9581   36.7088   26.6236 O.2     1  UNL1       -0.2913
      9 C          27.6150   34.7434   27.9712 C.3     1  UNL1        0.0692
     10 C          27.0143   33.6451   27.1097 C.3     1  UNL1        0.0086
     11 O          22.6402   38.7686   29.4570 O.3     1  UNL1       -0.4697
     12 C          21.4831   37.9131   29.6473 C.3     1  UNL1        0.2242
     13 C          20.5652   38.5043   30.7044 C.ar    1  UNL1        0.0226
     14 C          18.8672   39.6331   32.6666 C.ar    1  UNL1       -0.0225
     15 C          19.1791   38.2954   30.6605 C.ar    1  UNL1       -0.0008
     16 C          21.0941   39.2685   31.7523 C.ar    1  UNL1       -0.0008
     17 C          20.2554   39.8291   32.7199 C.ar    1  UNL1       -0.0045
     18 C          18.3404   38.8554   31.6266 C.ar    1  UNL1       -0.0045
     19 C          17.9364   40.2353   33.7034 C.3     1  UNL1        0.0224
     20 C          18.6109   41.3704   34.4765 C.3     1  UNL1        0.0047
     21 C          16.6250   40.7081   33.0713 C.3     1  UNL1        0.0047
     22 C          20.6622   37.8065   28.3293 C.2     1  UNL1        0.0943
     23 O          20.3308   38.9239   27.8262 O.co2   1  UNL1       -0.5452
     24 O          20.4070   36.6439   27.8973 O.co2   1  UNL1       -0.5452
     25 C          24.1285   37.0921   31.2814 C.3     1  UNL1        0.0294
     26 C          25.3366   36.6850   32.1276 C.3     1  UNL1        0.0048
     27 C          25.0326   35.4571   32.9721 C.3     1  UNL1        0.0004
     28 C          23.4685   39.2889   26.7015 C.3     1  UNL1        0.0294
     29 C          24.3009   40.5442   26.4291 C.3     1  UNL1        0.0048
     30 C          24.4904   41.3689   27.6923 C.3     1  UNL1        0.0004
@<TRIPOS>UNITY_ATOM_ATTR
24 1
charge -1
@<TRIPOS>BOND
     1     1    11    1
     2     1     3   ar
     3     1     4   ar
     4    11    12    1
     5    12    22    1
     6    12    13    1
     7     2     5   ar
     8     2     6   ar
     9     2     7    1
    10     3     5   ar
    11     3    28    1
    12     4     6   ar
    13     4    25    1
    14    22    23   ar
    15    22    24   ar
    16     7     8    2
    17     7     9    1
    18    13    15   ar
    19    13    16   ar
    20    14    17   ar
    21    14    18   ar
    22    14    19    1
    23    15    18   ar
    24    16    17   ar
    25    19    20    1
    26    19    21    1
    27    25    26    1
    28    28    29    1
    29     9    10    1
    30    26    27    1
    31    29    30    1
@<TRIPOS>MOLECULE
BDB50169245
 33 35 0 0 0
SMALL
GASTEIGER

@<TRIPOS>ATOM
      1 C          25.1836   42.3109   22.1819 C.ar    1  UNL1        0.4219
      2 N          24.2833   41.2600   22.2473 N.ar    1  UNL1       -0.2640
      3 C          25.5000   41.2946   24.0945 C.ar    1  UNL1        0.1649
      4 C          24.4879   40.6126   23.4497 C.ar    1  UNL1        0.0994
      5 O          25.9713   42.3638   23.3400 O.2     1  UNL1       -0.4070
      6 C          25.9776   40.9146   25.3416 C.ar    1  UNL1        0.0476
      7 C          25.3668   39.7872   25.9341 C.ar    1  UNL1        0.1343
      8 C          23.9017   39.4932   23.9988 C.ar    1  UNL1        0.0192
      9 C          24.3542   39.0517   25.2562 C.ar    1  UNL1        0.0131
     10 O          25.3126   43.1071   21.2597 O.2     1  UNL1       -0.2226
     11 C          23.3004   40.8884   21.2422 C.3     1  UNL1        0.0916
     12 C          23.9243   40.8266   19.8477 C.3     1  UNL1        0.0247
     13 C          22.0968   41.8307   21.2598 C.3     1  UNL1        0.0247
     14 O          25.8616   39.3340   27.1356 O.3     1  UNL1       -0.4696
     15 C          24.9527   39.5423   28.2479 C.3     1  UNL1        0.2242
     16 C          24.9986   38.3509   29.1932 C.ar    1  UNL1        0.0226
     17 C          25.1181   36.1283   30.9441 C.ar    1  UNL1       -0.0225
     18 C          26.0134   37.3926   29.0652 C.ar    1  UNL1       -0.0008
     19 C          24.0296   38.1687   30.1888 C.ar    1  UNL1       -0.0008
     20 C          24.0900   37.0742   31.0559 C.ar    1  UNL1       -0.0045
     21 C          26.0756   36.2980   29.9331 C.ar    1  UNL1       -0.0045
     22 C          25.2118   34.9364   31.8788 C.3     1  UNL1        0.0224
     23 C          26.1958   33.8880   31.3517 C.3     1  UNL1        0.0047
     24 C          25.5805   35.3634   33.3018 C.3     1  UNL1        0.0047
     25 C          25.3686   40.7997   29.0553 C.2     1  UNL1        0.0943
     26 O          26.3820   40.6299   29.8016 O.co2   1  UNL1       -0.5452
     27 O          24.6718   41.8449   28.8973 O.co2   1  UNL1       -0.5452
     28 C          27.1248   41.6547   25.9788 C.3     1  UNL1        0.0326
     29 C          26.7171   43.0494   26.4569 C.3     1  UNL1        0.0049
     30 C          27.8090   44.0712   26.1777 C.3     1  UNL1        0.0004
     31 C          23.7714   37.7660   25.8038 C.3     1  UNL1        0.0295
     32 C          22.2458   37.8090   25.8983 C.3     1  UNL1        0.0048
     33 C          21.7730   37.5808   27.3258 C.3     1  UNL1        0.0004
@<TRIPOS>UNITY_ATOM_ATTR
27 1
charge -1
@<TRIPOS>BOND
     1     1     2   ar
     2     1     5   ar
     3     1    10    2
     4     2     4   ar
     5     2    11    1
     6     3     4   ar
     7     3     5   ar
     8     3     6   ar
     9     4     8   ar
    10     6     7   ar
    11     6    28    1
    12     7    14    1
    13     7     9   ar
    14    14    15    1
    15     8     9   ar
    16     9    31    1
    17    15    25    1
    18    15    16    1
    19    25    26   ar
    20    25    27   ar
    21    16    18   ar
    22    16    19   ar
    23    11    12    1
    24    11    13    1
    25    17    20   ar
    26    17    21   ar
    27    17    22    1
    28    18    21   ar
    29    19    20   ar
    30    22    23    1
    31    22    24    1
    32    28    29    1
    33    31    32    1
    34    29    30    1
    35    32    33    1
@<TRIPOS>MOLECULE
BDB50179824
 31 32 0 0 0
SMALL
GASTEIGER

@<TRIPOS>ATOM
      1 C          11.4875   36.8911   27.3836 C.3     1  UNL1        0.2093
      2 O          10.9013   36.6824   26.1010 O.3     1  UNL1       -0.4753
      3 C          10.2783   40.2323   23.9716 C.ar    1  UNL1       -0.0216
      4 C          10.3425   39.0193   23.2692 C.ar    1  UNL1       -0.0011
      5 C          10.5518   37.8081   23.9388 C.ar    1  UNL1        0.0366
      6 C          10.6895   37.7904   25.3267 C.ar    1  UNL1        0.1385
      7 C          10.6018   38.9911   26.0338 C.ar    1  UNL1        0.0366
      8 C          10.3939   40.1995   25.3650 C.ar    1  UNL1       -0.0011
      9 C          10.0444   41.5289   23.2292 C.3     1  UNL1        0.0315
     10 C          11.0801   41.9746   22.1642 C.3     1  UNL1        0.0361
     11 C          12.4673   41.9676   22.8645 C.3     1  UNL1        0.0059
     12 C          11.3473   40.9112   21.0600 C.2     1  UNL1        0.0500
     13 O          12.5261   40.4579   21.0021 O.co2   1  UNL1       -0.5492
     14 O          10.3481   40.5887   20.3531 O.co2   1  UNL1       -0.5492
     15 C          10.8609   43.4129   21.6302 C.3     1  UNL1        0.0055
     16 C          11.8526   43.9296   20.5932 C.3     1  UNL1        0.0004
     17 C          12.9227   36.3840   27.3257 C.3     1  UNL1        0.0946
     18 C          13.9071   37.4089   27.8733 C.3     1  UNL1        0.2093
     19 O          13.3557   37.9412   29.0761 O.3     1  UNL1       -0.4745
     20 C          14.2261   38.3826   30.0372 C.ar    1  UNL1        0.1492
     21 C          13.6714   38.7554   31.2698 C.ar    1  UNL1        0.0945
     22 C          14.4851   39.2176   32.3080 C.ar    1  UNL1        0.0516
     23 C          15.8669   39.3166   32.1367 C.ar    1  UNL1        0.1478
     24 C          16.4249   38.9473   30.9139 C.ar    1  UNL1        0.0404
     25 C          15.6097   38.4836   29.8713 C.ar    1  UNL1        0.0409
     26 CL         11.9674   38.6597   31.5552 Cl      1  UNL1       -0.0790
     27 O          16.5417   39.7824   33.2296 O.3     1  UNL1       -0.4044
     28 C          16.4318   41.1622   33.5380 C.3     1  UNL1        0.5753
     29 F          17.6071   41.5888   34.0475 F       1  UNL1       -0.1328
     30 F          15.4693   41.3776   34.4594 F       1  UNL1       -0.1328
     31 F          16.1649   41.8862   32.4295 F       1  UNL1       -0.1328
@<TRIPOS>UNITY_ATOM_ATTR
13 1
charge -1
@<TRIPOS>BOND
     1     3     4   ar
     2     3     8   ar
     3     3     9    1
     4     4     5   ar
     5     5     6   ar
     6     6     7   ar
     7     6     2    1
     8     7     8   ar
     9     2     1    1
    10     1    17    1
    11    17    18    1
    12    18    19    1
    13    19    20    1
    14    20    21   ar
    15    20    25   ar
    16    21    22   ar
    17    21    26    1
    18    22    23   ar
    19    23    24   ar
    20    23    27    1
    21    24    25   ar
    22     9    10    1
    23    10    12    1
    24    10    11    1
    25    10    15    1
    26    12    13   ar
    27    12    14   ar
    28    15    16    1
    29    27    28    1
    30    28    29    1
    31    28    30    1
    32    28    31    1
@<TRIPOS>MOLECULE
BDB50212693
 34 36 0 0 0
SMALL
GASTEIGER

@<TRIPOS>ATOM
      1 C          22.1795   39.0020   29.1654 C.ar    1  UNL1        0.1390
      2 C          22.6581   37.7717   29.6220 C.ar    1  UNL1        0.0366
      3 C          23.9403   37.3357   29.2836 C.ar    1  UNL1       -0.0003
      4 C          24.7629   38.1268   28.4733 C.ar    1  UNL1       -0.0108
      5 C          24.2814   39.3635   28.0230 C.ar    1  UNL1       -0.0003
      6 C          22.9966   39.7986   28.3630 C.ar    1  UNL1        0.0366
      7 O          20.9098   39.3052   29.5729 O.3     1  UNL1       -0.4706
      8 C          20.0747   38.2173   29.9595 C.3     1  UNL1        0.2320
      9 C          19.4860   39.3265   32.1466 C.ar    1  UNL1       -0.0007
     10 C          19.0642   38.7463   30.9436 C.ar    1  UNL1        0.0211
     11 C          17.6916   38.6230   30.6914 C.ar    1  UNL1       -0.0007
     12 C          16.7577   39.0888   31.6189 C.ar    1  UNL1        0.0036
     13 C          17.1781   39.6717   32.8221 C.ar    1  UNL1        0.0714
     14 C          18.5516   39.7920   33.0750 C.ar    1  UNL1        0.0036
     15 C          16.1708   40.1920   33.8111 C.3     1  UNL1        0.4186
     16 F          16.7215   40.9930   34.7663 F       1  UNL1       -0.1659
     17 F          15.1836   40.9315   33.2334 F       1  UNL1       -0.1659
     18 F          15.5420   39.1890   34.4823 F       1  UNL1       -0.1659
     19 C          26.1544   37.6738   28.1126 C.3     1  UNL1        0.0885
     20 S          27.0897   37.1648   29.5914 S.3     1  UNL1       -0.1059
     21 C          27.0330   35.3865   29.3451 C.ar    1  UNL1        0.0594
     22 C          27.0003   32.6261   28.8128 C.ar    1  UNL1        0.1381
     23 C          27.0703   33.5428   27.7503 C.ar    1  UNL1        0.0128
     24 C          27.0863   34.9167   28.0261 C.ar    1  UNL1        0.0079
     25 C          26.9202   33.0959   30.1309 C.ar    1  UNL1        0.0739
     26 C          26.9334   34.4706   30.4085 C.ar    1  UNL1        0.1473
     27 C          27.1457   33.0637   26.3270 C.3     1  UNL1        0.0342
     28 O          26.8568   35.0039   31.6714 O.3     1  UNL1       -0.4708
     29 C          25.5870   35.0155   32.3101 C.3     1  UNL1        0.2525
     30 O          27.0038   31.3020   28.4543 O.3     1  UNL1       -0.4696
     31 C          27.0968   30.3294   29.5042 C.3     1  UNL1        0.2468
     32 C          26.0684   29.2198   29.2370 C.2     1  UNL1        0.0940
     33 O          25.5774   28.6767   30.2680 O.co2   1  UNL1       -0.5454
     34 O          25.8645   28.9553   28.0161 O.co2   1  UNL1       -0.5454
@<TRIPOS>UNITY_ATOM_ATTR
33 1
charge -1
@<TRIPOS>BOND
     1     9    10   ar
     2     9    14   ar
     3    10    11   ar
     4    10     8    1
     5    11    12   ar
     6    12    13   ar
     7    13    14   ar
     8    13    15    1
     9     8     7    1
    10     7     1    1
    11    15    16    1
    12    15    17    1
    13    15    18    1
    14     1     2   ar
    15     1     6   ar
    16     2     3   ar
    17     3     4   ar
    18     4     5   ar
    19     4    19    1
    20     5     6   ar
    21    19    20    1
    22    20    21    1
    23    21    24   ar
    24    21    26   ar
    25    22    23   ar
    26    22    25   ar
    27    22    30    1
    28    23    24   ar
    29    23    27    1
    30    25    26   ar
    31    26    28    1
    32    28    29    1
    33    30    31    1
    34    31    32    1
    35    32    33   ar
    36    32    34   ar
@<TRIPOS>MOLECULE
BDB50311792
 37 39 0 0 0
SMALL
GASTEIGER

@<TRIPOS>ATOM
      1 C          22.9436   39.1197   28.4422 C.ar    1  UNL1        0.0314
      2 C          23.7289   40.2875   28.4347 C.ar    1  UNL1        0.1361
      3 C          25.0512   40.2342   28.8895 C.ar    1  UNL1        0.0366
      4 C          25.5968   39.0310   29.3540 C.ar    1  UNL1        0.0031
      5 C          24.8326   37.8599   29.3850 C.ar    1  UNL1       -0.0004
      6 C          23.5009   37.9275   28.9499 C.ar    1  UNL1        0.0004
      7 C          25.4035   36.5867   29.8520 C.ar    1  UNL1       -0.0040
      8 C          26.3067   35.8307   29.0714 C.ar    1  UNL1       -0.0218
      9 C          26.8125   34.6160   29.5752 C.ar    1  UNL1       -0.0031
     10 C          26.4260   34.1175   30.8292 C.ar    1  UNL1        0.0137
     11 C          25.5246   34.8718   31.5899 C.ar    1  UNL1        0.0011
     12 C          25.0234   36.0857   31.1097 C.ar    1  UNL1       -0.0003
     13 C          26.7610   36.2900   27.7119 C.3     1  UNL1        0.0310
     14 C          26.9651   32.7981   31.3413 C.2     1  UNL1        0.0729
     15 O          27.3722   32.7670   32.5453 O.co2   1  UNL1       -0.5446
     16 O          26.9739   31.8199   30.5292 O.co2   1  UNL1       -0.5446
     17 C          21.5062   39.1370   27.9718 C.3     1  UNL1        0.1196
     18 C          19.9260   38.3422   29.6897 C.2     1  UNL1        0.2483
     19 N          20.5731   39.3836   29.0551 N.am    1  UNL1       -0.2967
     20 O          20.1185   37.1577   29.4473 O.2     1  UNL1       -0.2701
     21 H          20.3984   40.3089   29.3424 H       1  UNL1        0.1501
     22 C          18.4623   39.5231   32.9571 C.ar    1  UNL1        0.0336
     23 C          17.0868   39.5012   32.6857 C.ar    1  UNL1        0.0737
     24 C          16.6495   39.1031   31.4132 C.ar    1  UNL1        0.0041
     25 C          17.5697   38.7226   30.4337 C.ar    1  UNL1        0.0067
     26 C          18.9412   38.7507   30.7132 C.ar    1  UNL1        0.0807
     27 C          19.3775   39.1431   31.9768 C.ar    1  UNL1        0.1444
     28 F          20.6839   39.1981   32.2709 F       1  UNL1       -0.2040
     29 C          16.0931   39.9335   33.7308 C.3     1  UNL1        0.4186
     30 F          16.6275   40.8167   34.6174 F       1  UNL1       -0.1659
     31 F          14.9974   40.5454   33.2028 F       1  UNL1       -0.1659
     32 F          15.6177   38.8965   34.4739 F       1  UNL1       -0.1659
     33 O          23.1138   41.4213   27.9731 O.3     1  UNL1       -0.4757
     34 C          23.9159   42.5870   27.7887 C.3     1  UNL1        0.2054
     35 C          23.2113   43.7499   28.4829 C.3     1  UNL1        0.0473
     36 C          24.1517   44.9329   28.6981 C.3     1  UNL1        0.0038
     37 C          25.0963   44.6898   29.8634 C.3     1  UNL1        0.0001
@<TRIPOS>UNITY_ATOM_ATTR
15 1
charge -1
@<TRIPOS>BOND
     1    22    23   ar
     2    22    27   ar
     3    23    24   ar
     4    23    29    1
     5    24    25   ar
     6    25    26   ar
     7    26    27   ar
     8    26    18    1
     9    27    28    1
    10    29    30    1
    11    29    31    1
    12    29    32    1
    13    18    19   am
    14    18    20    2
    15    19    17    1
    16    17     1    1
    17     1     2   ar
    18     1     6   ar
    19     2     3   ar
    20     2    33    1
    21     3     4   ar
    22     4     5   ar
    23     5     6   ar
    24     5     7    1
    25    33    34    1
    26    34    35    1
    27    35    36    1
    28    36    37    1
    29     7     8   ar
    30     7    12   ar
    31     8     9   ar
    32     8    13    1
    33     9    10   ar
    34    10    11   ar
    35    10    14    1
    36    11    12   ar
    37    14    15   ar
    38    14    16   ar
    39    19    21    1
@<TRIPOS>MOLECULE
BDB50184274
 32 34 0 0 0
SMALL
GASTEIGER

@<TRIPOS>ATOM
      1 O          19.3840   37.9298   29.3608 O.3     1  UNL1       -0.4756
      2 C          19.3731   38.6127   30.5524 C.ar    1  UNL1        0.1375
      3 C          18.0948   38.7781   31.1332 C.ar    1  UNL1        0.0489
      4 C          20.4475   39.8074   32.3981 C.ar    1  UNL1        0.0078
      5 C          20.5212   39.1256   31.1745 C.ar    1  UNL1        0.0368
      6 C          19.1914   39.9685   32.9999 C.ar    1  UNL1        0.0619
      7 C          18.0789   39.4574   32.3585 C.ar    1  UNL1        0.1756
      8 O          16.9753   39.7192   33.1105 O.2     1  UNL1       -0.3537
      9 N          17.3393   40.4093   34.2521 N.ar    1  UNL1       -0.0730
     10 C          18.6719   40.5566   34.1844 C.ar    1  UNL1        0.1940
     11 C          19.4111   41.2627   35.2594 C.3     1  UNL1        0.4381
     12 F          19.9371   42.4429   34.8385 F       1  UNL1       -0.1643
     13 F          20.4416   40.5211   35.7435 F       1  UNL1       -0.1643
     14 F          18.6194   41.5576   36.3258 F       1  UNL1       -0.1643
     15 C          16.8426   38.2301   30.4981 C.3     1  UNL1        0.0326
     16 C          15.8106   39.3299   30.2413 C.3     1  UNL1        0.0049
     17 C          14.4562   38.9685   30.8294 C.3     1  UNL1        0.0004
     18 C          20.3812   38.2772   28.4024 C.3     1  UNL1        0.2072
     19 C          21.6007   37.3978   28.6626 C.3     1  UNL1        0.0685
     20 C          22.8959   38.1294   28.3272 C.3     1  UNL1        0.0909
     21 N          22.5975   39.3735   27.6471 N.pl3   1  UNL1       -0.3325
     22 H          21.9977   39.3428   26.8670 H       1  UNL1        0.1468
     23 C          22.6737   42.8986   28.7535 C.ar    1  UNL1       -0.0026
     24 C          24.0421   43.1678   28.8150 C.ar    1  UNL1       -0.0165
     25 C          24.9400   42.1439   28.5020 C.ar    1  UNL1       -0.0026
     26 C          24.4760   40.8824   28.1110 C.ar    1  UNL1        0.0140
     27 C          23.1065   40.6033   28.0298 C.ar    1  UNL1        0.0446
     28 C          22.2164   41.6340   28.3621 C.ar    1  UNL1        0.0140
     29 C          24.5398   44.5241   29.2404 C.3     1  UNL1        0.0679
     30 C          24.9753   45.3487   28.0309 C.2     1  UNL1        0.0547
     31 O          24.0566   46.0147   27.4721 O.co2   1  UNL1       -0.5488
     32 O          26.1950   45.2364   27.7134 O.co2   1  UNL1       -0.5488
@<TRIPOS>UNITY_ATOM_ATTR
31 1
charge -1
@<TRIPOS>BOND
     1    23    24   ar
     2    23    28   ar
     3    24    25   ar
     4    24    29    1
     5    25    26   ar
     6    26    27   ar
     7    27    28   ar
     8    27    21    1
     9    21    20    1
    10    29    30    1
    11    30    31   ar
    12    30    32   ar
    13    20    19    1
    14    19    18    1
    15    18     1    1
    16     1     2    1
    17     2     3   ar
    18     2     5   ar
    19     3    15    1
    20     3     7   ar
    21     4     5   ar
    22     4     6   ar
    23    15    16    1
    24    16    17    1
    25     6     7   ar
    26     6    10   ar
    27     7     8   ar
    28     8     9   ar
    29     9    10   ar
    30    10    11    1
    31    11    12    1
    32    11    13    1
    33    11    14    1
    34    21    22    1
@<TRIPOS>MOLECULE
BDB50277974
 34 38 0 0 0
SMALL
GASTEIGER

@<TRIPOS>ATOM
      1 C          13.1574   37.5150   28.8366 C.ar    1  UNL1        0.1389
      2 C          15.2243   38.9016   30.1625 C.ar    1  UNL1       -0.0132
      3 C          15.4416   38.2532   28.9285 C.ar    1  UNL1       -0.0006
      4 C          14.4287   37.5717   28.2715 C.ar    1  UNL1        0.0366
      5 C          13.9033   38.8705   30.6918 C.ar    1  UNL1        0.0285
      6 C          12.8608   38.1951   30.0431 C.ar    1  UNL1        0.0402
      7 C          11.6188   38.3151   30.7601 C.ar    1  UNL1        0.0105
      8 C          11.7342   39.0500   31.9137 C.ar    1  UNL1        0.0355
      9 S          13.3251   39.6027   32.1533 S.2     1  UNL1       -0.0866
     10 O          12.1751   36.8226   28.1564 O.3     1  UNL1       -0.4750
     11 C          12.2071   37.1903   26.7683 C.3     1  UNL1        0.2118
     12 C          11.1453   38.2603   26.5445 C.3     1  UNL1        0.0960
     13 C          10.9073   39.8677   23.3917 C.ar    1  UNL1        0.2289
     14 N          11.1104   39.9229   24.6960 N.ar    1  UNL1       -0.2129
     15 C          10.9936   38.6181   25.1146 C.ar    1  UNL1        0.0960
     16 C          10.7317   37.8088   24.0282 C.ar    1  UNL1        0.1387
     17 O          10.6663   38.6036   22.9192 O.2     1  UNL1       -0.4392
     18 C          10.5159   36.3664   23.8311 C.3     1  UNL1        0.0738
     19 C          10.2101   42.1330   22.6853 C.ar    1  UNL1        0.0046
     20 C          10.1956   43.1859   21.7652 C.ar    1  UNL1        0.0002
     21 C          10.8843   43.0669   20.5599 C.ar    1  UNL1        0.0000
     22 C          11.5886   41.8990   20.2755 C.ar    1  UNL1        0.0002
     23 C          11.6040   40.8462   21.1953 C.ar    1  UNL1        0.0046
     24 C          10.9139   40.9501   22.4126 C.ar    1  UNL1        0.0535
     25 C          16.3979   39.5867   30.8435 C.3     1  UNL1        0.0622
     26 C          17.3992   38.6637   31.5558 C.3     1  UNL1        0.1555
     27 C          18.7579   38.6676   30.8090 C.2     1  UNL1        0.0777
     28 O          18.7392   38.4796   29.5599 O.co2   1  UNL1       -0.5467
     29 O          19.7533   38.8945   31.5637 O.co2   1  UNL1       -0.5467
     30 O          17.4965   39.0446   32.9464 O.3     1  UNL1       -0.3503
     31 C          17.3509   40.4514   33.1461 C.3     1  UNL1        0.1425
     32 C          18.0846   40.8968   34.3771 C.3     1  UNL1        0.0297
     33 C          19.3406   41.7282   34.3014 C.3     1  UNL1        0.0026
     34 C          19.4146   40.2948   34.7538 C.3     1  UNL1        0.0026
@<TRIPOS>UNITY_ATOM_ATTR
28 1
charge -1
@<TRIPOS>BOND
     1    19    20   ar
     2    19    24   ar
     3    20    21   ar
     4    21    22   ar
     5    22    23   ar
     6    23    24   ar
     7    24    13    1
     8    13    14   ar
     9    13    17   ar
    10    14    15   ar
    11    15    16   ar
    12    15    12    1
    13    16    17   ar
    14    16    18    1
    15    12    11    1
    16    11    10    1
    17    10     1    1
    18     1     4   ar
    19     1     6   ar
    20     2     3   ar
    21     2    25    1
    22     2     5   ar
    23     3     4   ar
    24    25    26    1
    25    26    27    1
    26    26    30    1
    27    27    28   ar
    28    27    29   ar
    29    30    31    1
    30    31    32    1
    31     5     6   ar
    32     5     9   ar
    33     6     7   ar
    34     7     8   ar
    35     8     9   ar
    36    32    33    1
    37    32    34    1
    38    33    34    1
@<TRIPOS>MOLECULE
BDB50278067
 31 34 0 0 0
SMALL
GASTEIGER

@<TRIPOS>ATOM
      1 C          13.5951   37.6397   28.9820 C.ar    1  UNL1        0.1444
      2 C          15.2215   39.1885   30.6955 C.ar    1  UNL1       -0.0187
      3 C          15.7533   38.5489   29.5553 C.ar    1  UNL1       -0.0010
      4 C          14.9527   37.7977   28.7071 C.ar    1  UNL1        0.0371
      5 C          13.8290   39.0515   30.9725 C.ar    1  UNL1        0.0056
      6 C          13.0380   38.2871   30.1053 C.ar    1  UNL1        0.0631
      7 S          11.3852   38.2656   30.6103 S.2     1  UNL1       -0.0834
      8 C          11.7058   39.2374   31.9689 C.ar    1  UNL1        0.0355
      9 C          13.0323   39.5838   32.0475 C.ar    1  UNL1        0.0073
     10 O          12.8294   36.8930   28.1087 O.3     1  UNL1       -0.4745
     11 C          12.6951   37.5964   26.8658 C.3     1  UNL1        0.2118
     12 C          11.4160   37.1120   26.1898 C.3     1  UNL1        0.0960
     13 C          10.9631   39.6419   23.7472 C.ar    1  UNL1        0.2289
     14 N          11.7531   38.9334   24.5315 N.ar    1  UNL1       -0.2129
     15 C          10.8984   38.0879   25.2002 C.ar    1  UNL1        0.0960
     16 C           9.6028   38.3273   24.7929 C.ar    1  UNL1        0.1387
     17 O           9.6345   39.3200   23.8562 O.2     1  UNL1       -0.4392
     18 C           8.2846   37.7656   25.1316 C.3     1  UNL1        0.0738
     19 C          11.9108   41.8783   23.2796 C.ar    1  UNL1        0.0046
     20 C          12.2574   42.9096   22.4032 C.ar    1  UNL1        0.0002
     21 C          12.0095   42.7777   21.0383 C.ar    1  UNL1        0.0000
     22 C          11.4140   41.6160   20.5510 C.ar    1  UNL1        0.0002
     23 C          11.0664   40.5840   21.4281 C.ar    1  UNL1        0.0046
     24 C          11.3112   40.7016   22.8052 C.ar    1  UNL1        0.0535
     25 C          16.1784   39.9856   31.5727 C.3     1  UNL1        0.0617
     26 C          16.9902   39.0829   32.5140 C.3     1  UNL1        0.1556
     27 C          18.4628   38.9355   32.0477 C.2     1  UNL1        0.0777
     28 O          18.6974   37.9723   31.2598 O.co2   1  UNL1       -0.5467
     29 O          19.2635   39.7966   32.5123 O.co2   1  UNL1       -0.5467
     30 O          16.8933   39.5265   33.8903 O.3     1  UNL1       -0.3477
     31 C          16.2759   40.7944   34.0768 C.3     1  UNL1        0.1745
@<TRIPOS>UNITY_ATOM_ATTR
28 1
charge -1
@<TRIPOS>BOND
     1    19    20   ar
     2    19    24   ar
     3    20    21   ar
     4    21    22   ar
     5    22    23   ar
     6    23    24   ar
     7    24    13    1
     8    13    14   ar
     9    13    17   ar
    10    14    15   ar
    11    15    16   ar
    12    15    12    1
    13    16    17   ar
    14    16    18    1
    15    12    11    1
    16    11    10    1
    17    10     1    1
    18     1     4   ar
    19     1     6   ar
    20     2     3   ar
    21     2    25    1
    22     2     5   ar
    23     3     4   ar
    24    25    26    1
    25    26    27    1
    26    26    30    1
    27    27    28   ar
    28    27    29   ar
    29    30    31    1
    30     5     6   ar
    31     5     9   ar
    32     6     7   ar
    33     7     8   ar
    34     8     9   ar
@<TRIPOS>MOLECULE
BDB50194625
 36 38 0 0 0
SMALL
GASTEIGER

@<TRIPOS>ATOM
      1 C          15.7684   39.4007   32.3721 C.ar    1  UNL1        0.0778
      2 C          15.1619   39.6187   31.1305 C.ar    1  UNL1        0.1501
      3 C          15.8275   39.2217   29.9687 C.ar    1  UNL1        0.0405
      4 C          17.1002   38.6445   30.0474 C.ar    1  UNL1        0.0432
      5 C          17.7287   38.4839   31.2812 C.ar    1  UNL1        0.1728
      6 C          17.0320   38.8069   32.4471 C.ar    1  UNL1        0.1820
      7 O          18.9523   37.8770   31.3421 O.3     1  UNL1       -0.4760
      8 C          20.0620   38.6095   30.7750 C.3     1  UNL1        0.1699
      9 C          20.1054   40.0704   31.2265 C.3     1  UNL1        0.0474
     10 C          20.1820   38.4314   29.2540 C.3     1  UNL1        0.0908
     11 C          20.4382   39.7351   28.5004 C.3     1  UNL1        0.2091
     12 O          21.8131   39.7468   28.1106 O.3     1  UNL1       -0.4753
     13 C          22.5205   40.8925   28.3633 C.ar    1  UNL1        0.1382
     14 C          23.9057   40.7303   28.4172 C.ar    1  UNL1        0.0323
     15 C          24.7660   41.8159   28.6679 C.ar    1  UNL1       -0.0228
     16 C          24.2249   43.1058   28.8711 C.ar    1  UNL1       -0.0256
     17 C          22.8295   43.2533   28.8143 C.ar    1  UNL1       -0.0015
     18 C          21.9863   42.1625   28.5633 C.ar    1  UNL1        0.0366
     19 C          26.2506   41.5690   28.7123 C.3     1  UNL1        0.0308
     20 C          25.1521   44.2824   29.1431 C.3     1  UNL1        0.0319
     21 C          25.3714   45.2846   28.0101 C.3     1  UNL1        0.0464
     22 C          26.5861   44.9742   27.1292 C.2     1  UNL1        0.0507
     23 O          27.6193   44.5558   27.7189 O.co2   1  UNL1       -0.5492
     24 O          26.3958   45.1806   25.8951 O.co2   1  UNL1       -0.5492
     25 O          13.9318   40.2095   31.1961 O.3     1  UNL1       -0.4043
     26 C          12.8113   39.3754   31.4443 C.3     1  UNL1        0.5753
     27 F          11.7634   39.8307   30.7220 F       1  UNL1       -0.1328
     28 F          13.0567   38.1016   31.0685 F       1  UNL1       -0.1328
     29 F          12.4662   39.4032   32.7484 F       1  UNL1       -0.1328
     30 O          17.6241   38.6122   33.6715 O.3     1  UNL1       -0.4503
     31 C          18.4799   39.5888   34.1340 C.ar    1  UNL1        0.1454
     32 C          19.6953   39.1298   34.6501 C.ar    1  UNL1        0.0375
     33 C          20.6196   40.0310   35.1813 C.ar    1  UNL1        0.0031
     34 C          20.3266   41.3939   35.2038 C.ar    1  UNL1        0.0002
     35 C          19.1093   41.8543   34.6994 C.ar    1  UNL1        0.0031
     36 C          18.1821   40.9537   34.1713 C.ar    1  UNL1        0.0375
@<TRIPOS>UNITY_ATOM_ATTR
23 1
charge -1
@<TRIPOS>BOND
     1     1     2   ar
     2     1     6   ar
     3     2     3   ar
     4     2    25    1
     5     3     4   ar
     6     4     5   ar
     7     5     6   ar
     8     5     7    1
     9     6    30    1
    10     7     8    1
    11     8    10    1
    12     8     9    1
    13    10    11    1
    14    11    12    1
    15    12    13    1
    16    13    14   ar
    17    13    18   ar
    18    14    15   ar
    19    15    16   ar
    20    15    19    1
    21    16    17   ar
    22    16    20    1
    23    17    18   ar
    24    25    26    1
    25    30    31    1
    26    31    32   ar
    27    31    36   ar
    28    32    33   ar
    29    33    34   ar
    30    34    35   ar
    31    35    36   ar
    32    20    21    1
    33    21    22    1
    34    22    23   ar
    35    22    24   ar
    36    26    27    1
    37    26    28    1
    38    26    29    1
@<TRIPOS>MOLECULE
BDB50200411
 34 37 0 0 0
SMALL
GASTEIGER

@<TRIPOS>ATOM
      1 N          13.4574   37.5209   29.2202 N.pl3   1  UNL1       -0.2915
      2 C          14.5704   36.8247   28.6025 C.3     1  UNL1        0.1135
      3 C          15.0408   39.1792   31.9557 C.ar    1  UNL1        0.1636
      4 N          14.8230   38.3885   30.8879 N.ar    1  UNL1       -0.2122
      5 C          13.5778   38.2966   30.3610 C.ar    1  UNL1        0.1308
      6 C          12.5221   38.9720   30.9719 C.ar    1  UNL1        0.0289
      7 C          12.8528   39.7666   32.0615 C.ar    1  UNL1        0.0990
      8 N          14.0887   39.8966   32.5672 N.ar    1  UNL1       -0.2253
      9 C          11.0814   38.8795   30.5780 C.3     1  UNL1        0.0356
     10 C          17.9827   39.6519   34.3222 C.ar    1  UNL1       -0.0042
     11 C          19.0764   39.4518   33.4757 C.ar    1  UNL1       -0.0222
     12 C          18.8406   39.1481   32.1315 C.ar    1  UNL1       -0.0042
     13 C          17.5329   39.0623   31.6419 C.ar    1  UNL1        0.0027
     14 C          16.4181   39.2688   32.4755 C.ar    1  UNL1        0.0358
     15 C          16.6765   39.5614   33.8274 C.ar    1  UNL1        0.0027
     16 C          20.4829   39.5290   34.0085 C.3     1  UNL1        0.0264
     17 C          20.6849   40.7437   34.9013 C.3     1  UNL1        0.0050
     18 C          12.1359   37.3823   28.6048 C.3     1  UNL1        0.0961
     19 C          12.2683   36.8139   27.1946 C.3     1  UNL1        0.0688
     20 C          10.9140   36.3617   26.6618 C.3     1  UNL1        0.2072
     21 O          10.9306   36.4801   25.2396 O.3     1  UNL1       -0.4754
     22 C          10.7092   37.7335   24.7309 C.ar    1  UNL1        0.1382
     23 C          10.5269   38.8961   25.4853 C.ar    1  UNL1        0.0323
     24 C          10.4848   39.0149   22.6630 C.ar    1  UNL1       -0.0015
     25 C          10.6775   37.7991   23.3259 C.ar    1  UNL1        0.0366
     26 C          10.3123   40.1596   23.4230 C.ar    1  UNL1       -0.0259
     27 C          10.3242   40.0960   24.8191 C.ar    1  UNL1       -0.0231
     28 C          10.1727   41.4538   25.4270 C.3     1  UNL1        0.0265
     29 C           9.6574   42.2734   24.2344 C.3     1  UNL1        0.0094
     30 C          10.1290   41.5714   22.9415 C.3     1  UNL1        0.0279
     31 C          11.3644   42.1794   22.2820 C.3     1  UNL1        0.0460
     32 C          11.3692   42.2014   20.7534 C.2     1  UNL1        0.0507
     33 O          11.7827   41.1441   20.2009 O.co2   1  UNL1       -0.5492
     34 O          10.9335   43.2643   20.2285 O.co2   1  UNL1       -0.5492
@<TRIPOS>UNITY_ATOM_ATTR
34 1
charge -1
@<TRIPOS>BOND
     1    10    11   ar
     2    10    15   ar
     3    11    12   ar
     4    11    16    1
     5    12    13   ar
     6    13    14   ar
     7    14    15   ar
     8    14     3    1
     9     3     4   ar
    10     3     8   ar
    11     4     5   ar
    12     5     6   ar
    13     5     1    1
    14     6     7   ar
    15     6     9    1
    16     7     8   ar
    17     1     2    1
    18     1    18    1
    19    18    19    1
    20    19    20    1
    21    20    21    1
    22    21    22    1
    23    22    23   ar
    24    22    25   ar
    25    23    27   ar
    26    24    25   ar
    27    24    26   ar
    28    26    27   ar
    29    26    30    1
    30    27    28    1
    31    28    29    1
    32    29    30    1
    33    30    31    1
    34    31    32    1
    35    32    33   ar
    36    32    34   ar
    37    16    17    1
@<TRIPOS>MOLECULE
BDB50181911
 39 43 0 0 0
SMALL
GASTEIGER

@<TRIPOS>ATOM
      1 C          25.0825   38.2167   27.9711 C.ar    1  UNL1        0.1345
      2 C          20.6970   38.9310   30.5016 C.ar    1  UNL1        0.0390
      3 C          20.7212   39.9224   29.5276 C.ar    1  UNL1        0.0032
      4 C          21.8030   39.9998   28.6418 C.ar    1  UNL1       -0.0001
      5 C          21.7710   38.0440   30.6028 C.ar    1  UNL1        0.0032
      6 C          22.8601   38.1192   29.7169 C.ar    1  UNL1       -0.0000
      7 C          22.9029   39.1054   28.6996 C.ar    1  UNL1       -0.0011
      8 C          24.0347   39.1531   27.8061 C.ar    1  UNL1        0.0118
      9 C          25.0047   37.2574   28.9860 C.ar    1  UNL1        0.0366
     10 C          23.9106   37.2103   29.8441 C.ar    1  UNL1        0.0031
     11 C          19.5880   38.8176   31.4810 C.2     1  UNL1        0.1955
     12 O          18.6338   38.0891   31.2216 O.2     1  UNL1       -0.2866
     13 C          18.4565   41.0354   34.3032 C.ar    1  UNL1        0.0001
     14 C          19.5655   41.0121   35.1490 C.ar    1  UNL1        0.0000
     15 C          20.6968   40.2746   34.7992 C.ar    1  UNL1        0.0001
     16 C          20.7206   39.5512   33.6055 C.ar    1  UNL1        0.0032
     17 C          19.6009   39.5576   32.7655 C.ar    1  UNL1        0.0390
     18 C          18.4747   40.3147   33.1084 C.ar    1  UNL1        0.0032
     19 O          26.1447   38.2914   27.1121 O.3     1  UNL1       -0.4756
     20 C          27.4548   38.4841   27.6421 C.3     1  UNL1        0.2092
     21 C          28.3303   37.3431   27.1406 C.3     1  UNL1        0.0946
     22 C          28.2494   36.1271   28.0548 C.3     1  UNL1        0.2093
     23 O          27.4353   35.1492   27.4113 O.3     1  UNL1       -0.4753
     24 C          27.2714   33.9538   28.0617 C.ar    1  UNL1        0.1386
     25 C          27.1875   32.8438   27.2209 C.ar    1  UNL1        0.0384
     26 C          27.0243   31.5507   27.7289 C.ar    1  UNL1        0.0203
     27 C          27.1878   33.7862   29.4493 C.ar    1  UNL1        0.0384
     28 C          27.0247   32.4910   29.9872 C.ar    1  UNL1        0.0203
     29 C          26.9447   31.3987   29.1201 C.ar    1  UNL1        0.0604
     30 N          26.7924   30.2720   29.9048 N.ar    1  UNL1       -0.3206
     31 C          26.7823   30.6214   31.2315 C.ar    1  UNL1        0.0762
     32 C          26.9189   31.9874   31.3127 C.ar    1  UNL1        0.0202
     33 C          26.6413   28.9131   29.4157 C.3     1  UNL1        0.1477
     34 C          25.2137   28.4329   29.6050 C.2     1  UNL1        0.0732
     35 O          24.4856   28.4635   28.5733 O.co2   1  UNL1       -0.5472
     36 O          24.9370   28.0173   30.7679 O.co2   1  UNL1       -0.5472
     37 C          24.0267   40.2369   26.7240 C.3     1  UNL1        0.0294
     38 C          24.9023   41.4893   26.8325 C.3     1  UNL1        0.0048
     39 C          24.3992   42.4228   27.9271 C.3     1  UNL1        0.0004
@<TRIPOS>UNITY_ATOM_ATTR
36 1
charge -1
@<TRIPOS>BOND
     1    24    25   ar
     2    24    27   ar
     3    24    23    1
     4    25    26   ar
     5    26    29   ar
     6    27    28   ar
     7    28    29   ar
     8    28    32   ar
     9    29    30   ar
    10    30    31   ar
    11    30    33    1
    12    31    32   ar
    13    33    34    1
    14    34    35   ar
    15    34    36   ar
    16    19    20    1
    17    19     1    1
    18    20    21    1
    19    21    22    1
    20    22    23    1
    21     1     8   ar
    22     1     9   ar
    23    13    14   ar
    24    13    18   ar
    25    14    15   ar
    26    15    16   ar
    27    16    17   ar
    28    17    18   ar
    29    17    11    1
    30    11     2    1
    31    11    12    2
    32     2     3   ar
    33     2     5   ar
    34     3     4   ar
    35     4     7   ar
    36     5     6   ar
    37     6     7   ar
    38     6    10   ar
    39     7     8   ar
    40     8    37    1
    41     9    10   ar
    42    37    38    1
    43    38    39    1
@<TRIPOS>MOLECULE
BDB50227736
 38 40 0 0 0
SMALL
GASTEIGER

@<TRIPOS>ATOM
      1 C          22.4727   40.7347   28.1640 C.ar    1  UNL1       -0.0027
      2 C          22.3096   39.3918   27.8024 C.ar    1  UNL1        0.0004
      3 C          23.4361   38.5616   27.7580 C.ar    1  UNL1        0.0345
      4 C          24.7019   39.0697   28.0763 C.ar    1  UNL1        0.1410
      5 C          24.8727   40.4230   28.3989 C.ar    1  UNL1        0.0127
      6 C          23.7414   41.2458   28.4532 C.ar    1  UNL1       -0.0015
      7 C          26.2303   40.9783   28.7139 C.3     1  UNL1        0.0342
      8 O          25.8164   38.2599   28.0167 O.3     1  UNL1       -0.4538
      9 C          25.9037   37.2748   28.9759 C.ar    1  UNL1        0.1452
     10 C          25.5417   37.4912   30.3079 C.ar    1  UNL1        0.0406
     11 C          25.6783   36.4593   31.2358 C.ar    1  UNL1        0.0397
     12 C          26.1717   35.2179   30.8303 C.ar    1  UNL1        0.1349
     13 C          26.5962   35.0096   29.5090 C.ar    1  UNL1        0.0152
     14 C          26.4434   36.0488   28.5802 C.ar    1  UNL1        0.0362
     15 C          27.1509   33.6862   29.0673 C.3     1  UNL1        0.0343
     16 O          26.3502   34.2241   31.7491 O.3     1  UNL1       -0.4777
     17 C          27.5412   34.2734   32.5740 C.3     1  UNL1        0.1646
     18 C          28.4709   35.4831   32.3740 C.3     1  UNL1        0.0495
     19 C          28.3267   32.9778   32.3444 C.3     1  UNL1        0.0495
     20 C          27.0269   34.3220   34.0607 C.2     1  UNL1        0.0863
     21 O          27.6591   33.6131   34.8990 O.co2   1  UNL1       -0.5457
     22 O          26.0166   35.0607   34.2657 O.co2   1  UNL1       -0.5457
     23 C          20.9449   38.8377   27.5005 C.3     1  UNL1        0.1167
     24 C          19.8837   38.2819   29.6457 C.2     1  UNL1        0.2483
     25 O          20.4890   37.2243   29.7690 O.2     1  UNL1       -0.2701
     26 N          20.0182   39.1314   28.5678 N.am    1  UNL1       -0.2968
     27 H          19.4739   39.9507   28.5255 H       1  UNL1        0.1501
     28 C          18.9294   38.7311   30.6799 C.ar    1  UNL1        0.0807
     29 C          17.5476   38.6507   30.4670 C.ar    1  UNL1        0.0067
     30 C          16.6644   39.0723   31.4648 C.ar    1  UNL1        0.0041
     31 C          17.1502   39.5829   32.6780 C.ar    1  UNL1        0.0737
     32 C          18.5368   39.6708   32.8745 C.ar    1  UNL1        0.0336
     33 C          19.4139   39.2496   31.8783 C.ar    1  UNL1        0.1444
     34 F          20.7307   39.3233   32.1183 F       1  UNL1       -0.2040
     35 C          16.2141   40.0326   33.7673 C.3     1  UNL1        0.4186
     36 F          15.6563   39.0106   34.4703 F       1  UNL1       -0.1659
     37 F          16.8341   40.8271   34.6839 F       1  UNL1       -0.1659
     38 F          15.1756   40.7688   33.2824 F       1  UNL1       -0.1659
@<TRIPOS>UNITY_ATOM_ATTR
22 1
charge -1
@<TRIPOS>BOND
     1     1     2   ar
     2     1     6   ar
     3     2     3   ar
     4     2    23    1
     5     3     4   ar
     6     4     5   ar
     7     4     8    1
     8     5     6   ar
     9     5     7    1
    10     8     9    1
    11     9    10   ar
    12     9    14   ar
    13    10    11   ar
    14    11    12   ar
    15    12    13   ar
    16    12    16    1
    17    13    14   ar
    18    13    15    1
    19    16    17    1
    20    17    20    1
    21    17    18    1
    22    17    19    1
    23    20    21   ar
    24    20    22   ar
    25    23    26    1
    26    24    28    1
    27    24    25    2
    28    24    26   am
    29    28    29   ar
    30    28    33   ar
    31    29    30   ar
    32    30    31   ar
    33    31    32   ar
    34    31    35    1
    35    32    33   ar
    36    33    34    1
    37    35    36    1
    38    35    37    1
    39    35    38    1
    40    26    27    1
@<TRIPOS>MOLECULE
BDB50293846
 39 42 0 0 0
SMALL
GASTEIGER

@<TRIPOS>ATOM
      1 C          23.4348   42.4176   27.9016 C.ar    1  UNL1        0.1482
      2 C          22.3492   42.7233   28.7204 C.ar    1  UNL1        0.0373
      3 C          21.4823   41.7218   29.1675 C.ar    1  UNL1        0.0047
      4 C          23.6941   41.0900   27.5440 C.ar    1  UNL1        0.0543
      5 C          22.8118   40.0836   27.9928 C.ar    1  UNL1        0.0630
      6 C          21.7049   40.3806   28.7895 C.ar    1  UNL1        0.0202
      7 C          21.0131   39.1570   29.0574 C.ar    1  UNL1        0.0520
      8 C          21.6772   38.1499   28.3624 C.ar    1  UNL1        0.0408
      9 N          22.7985   38.7147   27.7763 N.ar    1  UNL1       -0.3263
     10 C          21.3151   36.7111   28.1859 C.3     1  UNL1        0.0501
     11 C          19.7908   39.0246   29.8468 C.2     1  UNL1        0.1967
     12 O          18.7024   38.7805   29.3303 O.2     1  UNL1       -0.2865
     13 C          19.8425   39.1998   31.3211 C.ar    1  UNL1        0.0390
     14 C          18.6765   39.3459   32.0827 C.ar    1  UNL1        0.0040
     15 C          18.7665   39.5059   33.4683 C.ar    1  UNL1        0.0115
     16 C          20.0171   39.5097   34.0877 C.ar    1  UNL1        0.0577
     17 C          21.1811   39.3442   33.3360 C.ar    1  UNL1        0.0115
     18 C          21.0943   39.1832   31.9522 C.ar    1  UNL1        0.0040
     19 CL         20.1272   39.7147   35.7927 Cl      1  UNL1       -0.0822
     20 C          23.8078   37.9935   26.9969 C.3     1  UNL1        0.1325
     21 C          25.1344   37.8445   27.7001 C.ar    1  UNL1        0.0034
     22 C          25.2261   37.7420   29.0982 C.ar    1  UNL1        0.0345
     23 C          26.4745   37.6238   29.7153 C.ar    1  UNL1        0.1385
     24 C          27.6401   37.6774   28.9558 C.ar    1  UNL1        0.0369
     25 C          27.5626   37.7873   27.5704 C.ar    1  UNL1        0.0029
     26 C          26.3191   37.8703   26.9466 C.ar    1  UNL1       -0.0022
     27 O          26.5442   37.5831   31.0801 O.3     1  UNL1       -0.4774
     28 C          26.4949   36.2705   31.7003 C.3     1  UNL1        0.1645
     29 C          25.0673   35.7477   31.9339 C.3     1  UNL1        0.0495
     30 C          27.0258   36.4023   33.1774 C.2     1  UNL1        0.0863
     31 O          26.4280   35.6929   34.0413 O.co2   1  UNL1       -0.5457
     32 O          27.9768   37.2178   33.3628 O.co2   1  UNL1       -0.5457
     33 C          27.3359   35.2376   30.9202 C.3     1  UNL1        0.0455
     34 C          26.5602   33.9828   30.5274 C.3     1  UNL1        0.0041
     35 O          24.1926   43.4962   27.5323 O.3     1  UNL1       -0.4044
     36 C          25.0769   44.0261   28.5079 C.3     1  UNL1        0.5753
     37 F          24.4551   45.0413   29.1496 F       1  UNL1       -0.1328
     38 F          25.4066   43.0912   29.4257 F       1  UNL1       -0.1328
     39 F          26.1989   44.5221   27.9412 F       1  UNL1       -0.1328
@<TRIPOS>UNITY_ATOM_ATTR
32 1
charge -1
@<TRIPOS>BOND
     1     1     2   ar
     2     1     4   ar
     3     1    35    1
     4     2     3   ar
     5     3     6   ar
     6     4     5   ar
     7     5     6   ar
     8     5     9   ar
     9     6     7   ar
    10     7     8   ar
    11     7    11    1
    12     8     9   ar
    13     8    10    1
    14     9    20    1
    15    20    21    1
    16    21    22   ar
    17    21    26   ar
    18    22    23   ar
    19    23    24   ar
    20    23    27    1
    21    24    25   ar
    22    25    26   ar
    23    27    28    1
    24    28    30    1
    25    28    33    1
    26    28    29    1
    27    30    31   ar
    28    30    32   ar
    29    11    12    2
    30    11    13    1
    31    13    14   ar
    32    13    18   ar
    33    14    15   ar
    34    15    16   ar
    35    16    17   ar
    36    16    19    1
    37    17    18   ar
    38    35    36    1
    39    36    37    1
    40    36    38    1
    41    36    39    1
    42    33    34    1
@<TRIPOS>MOLECULE
BDB50181902
 33 36 0 0 0
SMALL
GASTEIGER

@<TRIPOS>ATOM
      1 C          21.6753   37.5685   26.6181 C.3     1  UNL1        0.2093
      2 O          23.0839   37.4686   26.8249 O.3     1  UNL1       -0.4753
      3 C          25.1015   40.7518   28.4184 C.ar    1  UNL1        0.0391
      4 C          24.5678   40.8629   27.1300 C.ar    1  UNL1        0.0063
      5 C          23.8785   39.7847   26.5588 C.ar    1  UNL1        0.0370
      6 C          23.7314   38.5903   27.2674 C.ar    1  UNL1        0.1386
      7 C          24.2809   38.4807   28.5487 C.ar    1  UNL1        0.0370
      8 C          24.9701   39.5509   29.1211 C.ar    1  UNL1        0.0063
      9 C          25.8566   41.8629   29.0493 C.2     1  UNL1        0.1955
     10 O          26.7173   41.6032   29.8847 O.2     1  UNL1       -0.2866
     11 C          24.1049   45.1851   28.7808 C.ar    1  UNL1        0.0297
     12 C          25.0201   45.9180   28.0344 C.ar    1  UNL1        0.1401
     13 C          26.2149   45.3484   27.6027 C.ar    1  UNL1        0.0297
     14 C          26.5056   44.0227   27.9280 C.ar    1  UNL1        0.0055
     15 C          25.5983   43.2805   28.6968 C.ar    1  UNL1        0.0391
     16 C          24.3899   43.8600   29.1091 C.ar    1  UNL1        0.0055
     17 F          24.7454   47.1904   27.7181 F       1  UNL1       -0.2042
     18 C          20.9820   37.1835   27.9185 C.3     1  UNL1        0.0946
     19 C          20.4949   38.4140   28.6721 C.3     1  UNL1        0.2093
     20 O          19.5111   37.9958   29.6189 O.3     1  UNL1       -0.4753
     21 C          20.8375   38.9018   31.3085 C.ar    1  UNL1        0.0370
     22 C          19.5537   38.6125   30.8439 C.ar    1  UNL1        0.1400
     23 C          18.4347   38.9457   31.6151 C.ar    1  UNL1        0.0541
     24 C          21.0359   39.5509   32.5336 C.ar    1  UNL1        0.0046
     25 C          19.9187   39.9110   33.3121 C.ar    1  UNL1        0.0175
     26 C          18.6409   39.5959   32.8449 C.ar    1  UNL1        0.0632
     27 N          17.7409   40.0420   33.7924 N.ar    1  UNL1       -0.3205
     28 C          18.4112   40.6506   34.8239 C.ar    1  UNL1        0.0762
     29 C          19.7596   40.5745   34.5588 C.ar    1  UNL1        0.0201
     30 C          16.2988   39.8748   33.7381 C.3     1  UNL1        0.1477
     31 C          15.6729   40.8624   32.7694 C.2     1  UNL1        0.0732
     32 O          14.7351   40.3984   32.0570 O.co2   1  UNL1       -0.5472
     33 O          16.1271   42.0412   32.8238 O.co2   1  UNL1       -0.5472
@<TRIPOS>UNITY_ATOM_ATTR
33 1
charge -1
@<TRIPOS>BOND
     1    21    22   ar
     2    21    24   ar
     3    22    23   ar
     4    22    20    1
     5    23    26   ar
     6    24    25   ar
     7    25    26   ar
     8    25    29   ar
     9    26    27   ar
    10    27    28   ar
    11    27    30    1
    12    28    29   ar
    13    30    31    1
    14    31    32   ar
    15    31    33   ar
    16    11    12   ar
    17    11    16   ar
    18    12    13   ar
    19    12    17    1
    20    13    14   ar
    21    14    15   ar
    22    15    16   ar
    23    15     9    1
    24     9     3    1
    25     9    10    2
    26     3     4   ar
    27     3     8   ar
    28     4     5   ar
    29     5     6   ar
    30     6     7   ar
    31     6     2    1
    32     7     8   ar
    33     2     1    1
    34     1    18    1
    35    18    19    1
    36    19    20    1
@<TRIPOS>MOLECULE
BDB50314832
 34 37 0 0 0
SMALL
GASTEIGER

@<TRIPOS>ATOM
      1 C          12.2447   37.7093   26.6884 C.ar    1  UNL1        0.1389
      2 C          11.6705   38.5712   25.7529 C.ar    1  UNL1        0.0343
      3 C          10.4756   38.2235   25.1013 C.ar    1  UNL1        0.0008
      4 C           9.8745   36.9905   25.3831 C.ar    1  UNL1       -0.0024
      5 C          10.4652   36.1125   26.2916 C.ar    1  UNL1        0.0028
      6 C          11.6472   36.4718   26.9392 C.ar    1  UNL1        0.0369
      7 C           9.8333   39.1885   24.1328 C.3     1  UNL1        0.1239
      8 N          10.8138   40.0669   23.4957 N.am    1  UNL1       -0.2366
      9 C          11.3194   39.7267   22.2469 C.2     1  UNL1        0.4053
     10 O          11.0114   38.6984   21.6522 O.2     1  UNL1       -0.2262
     11 C          11.2039   41.2947   24.2271 C.3     1  UNL1        0.1388
     12 C          10.0263   42.0661   24.8455 C.2     1  UNL1        0.0706
     13 O          10.0707   42.2079   26.1003 O.co2   1  UNL1       -0.5474
     14 O           9.1518   42.4631   24.0218 O.co2   1  UNL1       -0.5474
     15 O          12.2013   40.6497   21.7704 O.3     1  UNL1       -0.4383
     16 C          11.7761   41.6327   20.8069 C.3     1  UNL1        0.1705
     17 C          10.2915   42.0586   20.7430 C.3     1  UNL1        0.0438
     18 C          10.7796   43.4729   20.3681 C.3     1  UNL1        0.0074
     19 C          12.1379   43.1223   21.0087 C.3     1  UNL1        0.0438
     20 O          13.3807   37.9637   27.4095 O.3     1  UNL1       -0.4689
     21 C          13.6101   37.1170   28.5406 C.3     1  UNL1        0.2537
     22 C          14.8154   39.0154   31.2901 C.ar    1  UNL1        0.2290
     23 N          15.0423   38.3269   30.1865 N.ar    1  UNL1       -0.2093
     24 C          13.7900   37.9249   29.7757 C.ar    1  UNL1        0.1359
     25 C          12.8447   38.3827   30.6685 C.ar    1  UNL1        0.1421
     26 O          13.4932   39.0871   31.6419 O.2     1  UNL1       -0.4391
     27 C          11.3791   38.2871   30.7712 C.3     1  UNL1        0.0740
     28 C          16.3343   41.4437   33.7585 C.ar    1  UNL1        0.0115
     29 C          17.6436   40.9735   33.8113 C.ar    1  UNL1        0.0577
     30 C          18.0293   39.8724   33.0494 C.ar    1  UNL1        0.0115
     31 C          17.0932   39.2384   32.2280 C.ar    1  UNL1        0.0055
     32 C          15.7673   39.6969   32.1591 C.ar    1  UNL1        0.0536
     33 C          15.3998   40.8074   32.9353 C.ar    1  UNL1        0.0055
     34 CL         18.7934   41.7574   34.8228 Cl      1  UNL1       -0.0822
@<TRIPOS>UNITY_ATOM_ATTR
13 1
charge -1
@<TRIPOS>BOND
     1     7     8    1
     2     7     3    1
     3     8    11    1
     4     8     9   am
     5    11    12    1
     6    12    13   ar
     7    12    14   ar
     8     9    10    2
     9     9    15    1
    10    15    16    1
    11    16    17    1
    12    16    19    1
    13    21    20    1
    14    21    24    1
    15    20     1    1
    16     1     2   ar
    17     1     6   ar
    18     2     3   ar
    19     3     4   ar
    20     4     5   ar
    21     5     6   ar
    22    28    29   ar
    23    28    33   ar
    24    29    30   ar
    25    29    34    1
    26    30    31   ar
    27    31    32   ar
    28    32    33   ar
    29    32    22    1
    30    22    23   ar
    31    22    26   ar
    32    23    24   ar
    33    24    25   ar
    34    25    26   ar
    35    25    27    1
    36    17    18    1
    37    18    19    1
@<TRIPOS>MOLECULE
BDB50213331
 25 27 0 0 0
SMALL
GASTEIGER

@<TRIPOS>ATOM
      1 C          19.1801   38.3694   30.3349 C.ar    1  UNL1        0.0076
      2 C          20.5498   38.5260   30.5588 C.ar    1  UNL1        0.0256
      3 C          21.0044   39.1093   31.7503 C.ar    1  UNL1        0.0076
      4 C          18.2397   38.7617   31.2927 C.ar    1  UNL1        0.0177
      5 C          18.7098   39.3300   32.4856 C.ar    1  UNL1        0.0602
      6 C          20.0732   39.5098   32.7310 C.ar    1  UNL1        0.0178
      7 C          20.1971   40.0952   34.0208 C.ar    1  UNL1        0.0201
      8 C          18.9301   40.2545   34.5317 C.ar    1  UNL1        0.0762
      9 N          18.0344   39.7998   33.5953 N.ar    1  UNL1       -0.3206
     10 C          16.5922   39.8391   33.7574 C.3     1  UNL1        0.1477
     11 C          15.9893   40.9316   32.8935 C.2     1  UNL1        0.0732
     12 O          16.3502   42.1089   33.1861 O.co2   1  UNL1       -0.5472
     13 O          15.1661   40.5428   32.0171 O.co2   1  UNL1       -0.5472
     14 S          21.7500   38.0054   29.3419 S.3     1  UNL1       -0.1083
     15 C          21.4087   39.2418   28.0429 C.3     1  UNL1        0.0961
     16 C          22.4849   40.2775   28.0137 C.ar    1  UNL1        0.0334
     17 C          23.8055   40.1661   27.6094 C.ar    1  UNL1        0.0627
     18 N          24.5448   41.3330   27.7013 N.ar    1  UNL1       -0.2392
     19 C          23.8002   42.3157   28.1729 C.ar    1  UNL1        0.1818
     20 S          22.1695   41.8874   28.5162 S.2     1  UNL1       -0.0665
     21 C          24.4808   38.9430   27.1024 C.3     1  UNL1        0.0523
     22 C          24.2548   43.7173   28.4145 C.3     1  UNL1        0.4407
     23 F          25.5295   43.9351   27.9935 F       1  UNL1       -0.1640
     24 F          23.4780   44.6276   27.7684 F       1  UNL1       -0.1640
     25 F          24.2259   44.0479   29.7333 F       1  UNL1       -0.1640
@<TRIPOS>UNITY_ATOM_ATTR
12 1
charge -1
@<TRIPOS>BOND
     1     1     2   ar
     2     1     4   ar
     3     2     3   ar
     4     2    14    1
     5     3     6   ar
     6     4     5   ar
     7     5     6   ar
     8     5     9   ar
     9     6     7   ar
    10     7     8   ar
    11     8     9   ar
    12     9    10    1
    13    10    11    1
    14    11    12   ar
    15    11    13   ar
    16    14    15    1
    17    15    16    1
    18    16    17   ar
    19    16    20   ar
    20    17    18   ar
    21    17    21    1
    22    18    19   ar
    23    19    20   ar
    24    19    22    1
    25    22    23    1
    26    22    24    1
    27    22    25    1
@<TRIPOS>MOLECULE
BDB50213330
 33 36 0 0 0
SMALL
GASTEIGER

@<TRIPOS>ATOM
      1 C          12.3170   36.8398   27.7134 C.ar    1  UNL1        0.0211
      2 C          11.7119   37.4356   28.8267 C.ar    1  UNL1       -0.0009
      3 C          12.4866   38.0796   29.7938 C.ar    1  UNL1       -0.0009
      4 C          13.8826   38.1338   29.6712 C.ar    1  UNL1        0.0211
      5 C          14.4872   37.5454   28.5544 C.ar    1  UNL1       -0.0009
      6 C          13.7120   36.9023   27.5864 C.ar    1  UNL1       -0.0009
      7 C          11.4871   36.1512   26.6581 C.3     1  UNL1        0.2320
      8 O          10.3373   36.9510   26.3904 O.3     1  UNL1       -0.4706
      9 C          10.6779   37.5317   24.0284 C.ar    1  UNL1        0.0369
     10 C          10.4308   37.8461   25.3579 C.ar    1  UNL1        0.1396
     11 C          10.2553   39.1818   25.7345 C.ar    1  UNL1        0.0434
     12 C          10.7566   38.5441   23.0649 C.ar    1  UNL1        0.0033
     13 C          10.5901   39.9062   23.4191 C.ar    1  UNL1        0.0031
     14 C          10.3417   40.1983   24.7619 C.ar    1  UNL1        0.0322
     15 S          10.1734   41.8911   25.0164 S.2     1  UNL1       -0.0867
     16 C          10.4365   42.2375   23.3714 C.ar    1  UNL1        0.0315
     17 C          10.6401   41.1050   22.6077 C.ar    1  UNL1       -0.0096
     18 C          10.8770   41.1303   21.1246 C.3     1  UNL1        0.0685
     19 C          11.4028   42.4966   20.6854 C.2     1  UNL1        0.0547
     20 O          12.5653   42.7812   21.0957 O.co2   1  UNL1       -0.5488
     21 O          10.6294   43.1633   19.9387 O.co2   1  UNL1       -0.5488
     22 C          14.7122   38.8520   30.7086 C.3     1  UNL1        0.2320
     23 O          16.0860   38.7946   30.3234 O.3     1  UNL1       -0.4706
     24 C          17.0195   38.9393   31.3111 C.ar    1  UNL1        0.1390
     25 C          18.3755   38.6255   31.2148 C.ar    1  UNL1        0.0369
     26 C          19.2231   38.8271   32.3097 C.ar    1  UNL1        0.0070
     27 C          18.7290   39.3490   33.5142 C.ar    1  UNL1        0.0716
     28 C          17.3648   39.6498   33.6081 C.ar    1  UNL1        0.0070
     29 C          16.5213   39.4475   32.5130 C.ar    1  UNL1        0.0369
     30 C          19.6403   39.5417   34.6968 C.3     1  UNL1        0.4186
     31 F          19.6220   38.4891   35.5621 F       1  UNL1       -0.1659
     32 F          19.3073   40.6362   35.4338 F       1  UNL1       -0.1659
     33 F          20.9464   39.7085   34.3471 F       1  UNL1       -0.1659
@<TRIPOS>UNITY_ATOM_ATTR
20 1
charge -1
@<TRIPOS>BOND
     1     9    10   ar
     2     9    12   ar
     3    10    11   ar
     4    10     8    1
     5    11    14   ar
     6    12    13   ar
     7     8     7    1
     8     7     1    1
     9     1     2   ar
    10     1     6   ar
    11    13    14   ar
    12    13    17   ar
    13    14    15   ar
    14    15    16   ar
    15    16    17   ar
    16    17    18    1
    17    18    19    1
    18    19    20   ar
    19    19    21   ar
    20     2     3   ar
    21     3     4   ar
    22     4     5   ar
    23     4    22    1
    24     5     6   ar
    25    22    23    1
    26    23    24    1
    27    24    25   ar
    28    24    29   ar
    29    25    26   ar
    30    26    27   ar
    31    27    28   ar
    32    27    30    1
    33    28    29   ar
    34    30    31    1
    35    30    32    1
    36    30    33    1
@<TRIPOS>MOLECULE
BDB50213315
 30 33 0 0 0
SMALL
GASTEIGER

@<TRIPOS>ATOM
      1 C          23.2426   37.6158   28.2655 C.3     1  UNL1        0.2542
      2 C          21.8845   37.6966   28.8847 C.ar    1  UNL1        0.1443
      3 N          20.8817   36.9408   28.4172 N.ar    1  UNL1       -0.0776
      4 O          19.7830   37.2503   29.2011 O.2     1  UNL1       -0.3536
      5 C          20.1243   38.1841   30.1369 C.ar    1  UNL1        0.1767
      6 C          21.4542   38.4937   29.9731 C.ar    1  UNL1        0.0619
      7 C          19.0683   38.6218   31.0465 C.ar    1  UNL1        0.0372
      8 C          19.3470   38.9983   32.3689 C.ar    1  UNL1        0.0031
      9 C          18.3263   39.4137   33.2319 C.ar    1  UNL1        0.0040
     10 C          16.9960   39.4587   32.7955 C.ar    1  UNL1        0.0714
     11 C          16.7114   39.0935   31.4741 C.ar    1  UNL1        0.0040
     12 C          17.7346   38.6780   30.6134 C.ar    1  UNL1        0.0031
     13 C          15.8993   39.9277   33.7168 C.3     1  UNL1        0.4186
     14 F          16.2153   41.0927   34.3477 F       1  UNL1       -0.1659
     15 F          14.7212   40.1601   33.0730 F       1  UNL1       -0.1659
     16 F          15.6103   39.0339   34.7046 F       1  UNL1       -0.1659
     17 O          23.3851   38.5690   27.2076 O.3     1  UNL1       -0.4689
     18 C          25.2653   40.1086   27.5708 C.ar    1  UNL1        0.0369
     19 C          23.9141   39.7905   27.5295 C.ar    1  UNL1        0.1396
     20 C          22.9614   40.7672   27.8371 C.ar    1  UNL1        0.0434
     21 C          25.6771   41.4021   27.9205 C.ar    1  UNL1        0.0033
     22 C          24.7330   42.4107   28.2414 C.ar    1  UNL1        0.0031
     23 C          23.3805   42.0653   28.1935 C.ar    1  UNL1        0.0322
     24 S          22.3763   43.3956   28.6183 S.2     1  UNL1       -0.0867
     25 C          23.7137   44.4180   28.8695 C.ar    1  UNL1        0.0315
     26 C          24.9221   43.7927   28.6319 C.ar    1  UNL1       -0.0096
     27 C          26.2541   44.4748   28.7623 C.3     1  UNL1        0.0685
     28 C          26.8696   44.7268   27.3862 C.2     1  UNL1        0.0547
     29 O          26.1961   45.4850   26.6296 O.co2   1  UNL1       -0.5488
     30 O          27.9870   44.1745   27.1788 O.co2   1  UNL1       -0.5488
@<TRIPOS>UNITY_ATOM_ATTR
29 1
charge -1
@<TRIPOS>BOND
     1    18    19   ar
     2    18    21   ar
     3    19    20   ar
     4    19    17    1
     5    20    23   ar
     6    21    22   ar
     7    17     1    1
     8     1     2    1
     9     2     3   ar
    10     2     6   ar
    11    22    23   ar
    12    22    26   ar
    13    23    24   ar
    14    24    25   ar
    15    25    26   ar
    16    26    27    1
    17    27    28    1
    18    28    29   ar
    19    28    30   ar
    20     3     4   ar
    21     4     5   ar
    22     5     6   ar
    23     5     7    1
    24     7     8   ar
    25     7    12   ar
    26     8     9   ar
    27     9    10   ar
    28    10    11   ar
    29    10    13    1
    30    11    12   ar
    31    13    14    1
    32    13    15    1
    33    13    16    1
@<TRIPOS>MOLECULE
BDB50212712
 35 38 0 0 0
SMALL
GASTEIGER

@<TRIPOS>ATOM
      1 C          12.1828   38.1170   30.0326 C.ar    1  UNL1        0.0366
      2 C          13.5521   38.2447   30.2831 C.ar    1  UNL1        0.1390
      3 C          14.4636   37.8200   29.3155 C.ar    1  UNL1        0.0366
      4 C          14.0067   37.2767   28.1095 C.ar    1  UNL1       -0.0003
      5 C          12.6344   37.1554   27.8509 C.ar    1  UNL1       -0.0108
      6 C          11.7254   37.5750   28.8300 C.ar    1  UNL1       -0.0003
      7 O          13.8613   38.7927   31.4992 O.3     1  UNL1       -0.4706
      8 C          14.5027   40.0680   31.4958 C.3     1  UNL1        0.2320
      9 C          15.7600   39.9911   32.3299 C.ar    1  UNL1        0.0214
     10 C          16.8944   39.3201   31.8579 C.ar    1  UNL1        0.0024
     11 C          18.0497   39.2218   32.6432 C.ar    1  UNL1        0.0370
     12 C          18.0854   39.7905   33.9177 C.ar    1  UNL1        0.1468
     13 C          16.9540   40.4605   34.3915 C.ar    1  UNL1        0.0370
     14 C          15.7997   40.5589   33.6090 C.ar    1  UNL1        0.0024
     15 O          19.1379   39.7658   34.7892 O.3     1  UNL1       -0.4045
     16 C          19.8253   40.9815   35.0337 C.3     1  UNL1        0.5753
     17 F          21.1304   40.7082   35.2534 F       1  UNL1       -0.1328
     18 F          19.7429   41.8098   33.9694 F       1  UNL1       -0.1328
     19 F          19.3358   41.6039   36.1278 F       1  UNL1       -0.1328
     20 C          12.1470   36.5626   26.5548 C.3     1  UNL1        0.0884
     21 S          10.3584   36.8265   26.3286 S.3     1  UNL1       -0.1092
     22 C          10.4333   37.8656   24.8834 C.ar    1  UNL1        0.0215
     23 C          10.4734   39.4599   22.5222 C.ar    1  UNL1        0.1348
     24 C          10.6953   38.0829   22.4594 C.ar    1  UNL1        0.0371
     25 C          10.6760   37.2956   23.6278 C.ar    1  UNL1        0.0089
     26 C          10.2671   40.0219   23.7764 C.ar    1  UNL1        0.0083
     27 C          10.2480   39.2413   24.9446 C.ar    1  UNL1       -0.0175
     28 C           9.9496   40.0995   26.1386 C.3     1  UNL1        0.0270
     29 C          10.2664   41.4990   25.5967 C.3     1  UNL1        0.0095
     30 C           9.9798   41.4602   24.0929 C.3     1  UNL1        0.0295
     31 O          10.4397   40.3205   21.4638 O.3     1  UNL1       -0.4697
     32 C          11.6847   40.9056   21.0593 C.3     1  UNL1        0.2468
     33 C          11.4869   42.4223   20.9083 C.2     1  UNL1        0.0940
     34 O          12.3922   43.1417   21.4224 O.co2   1  UNL1       -0.5454
     35 O          10.4621   42.7711   20.2524 O.co2   1  UNL1       -0.5454
@<TRIPOS>UNITY_ATOM_ATTR
34 1
charge -1
@<TRIPOS>BOND
     1     1     2   ar
     2     1     6   ar
     3     2     3   ar
     4     2     7    1
     5     3     4   ar
     6     4     5   ar
     7     5     6   ar
     8     5    20    1
     9     7     8    1
    10    20    21    1
    11    21    22    1
    12    22    25   ar
    13    22    27   ar
    14    23    24   ar
    15    23    26   ar
    16    23    31    1
    17    24    25   ar
    18    26    27   ar
    19    26    30    1
    20    27    28    1
    21    28    29    1
    22    29    30    1
    23    31    32    1
    24    32    33    1
    25    33    34   ar
    26    33    35   ar
    27     8     9    1
    28     9    10   ar
    29     9    14   ar
    30    10    11   ar
    31    11    12   ar
    32    12    13   ar
    33    12    15    1
    34    13    14   ar
    35    15    16    1
    36    16    17    1
    37    16    18    1
    38    16    19    1
@<TRIPOS>MOLECULE
BDB50264403
 33 36 0 0 0
SMALL
GASTEIGER

@<TRIPOS>ATOM
      1 C          15.0129   38.3512   29.8094 C.ar    1  UNL1        0.2016
      2 N          13.6774   38.1340   30.0736 N.ar    1  UNL1       -0.2880
      3 C          13.1257   37.7786   28.8688 C.ar    1  UNL1        0.1937
      4 N          14.0424   37.8076   27.9311 N.ar    1  UNL1       -0.1220
      5 N          15.2276   38.1704   28.5192 N.ar    1  UNL1       -0.1250
      6 C          16.0471   38.7054   30.7283 C.ar    1  UNL1        0.1812
      7 C          15.9506   39.3204   31.9628 C.ar    1  UNL1        0.0438
      8 O          17.3618   38.4636   30.4507 O.2     1  UNL1       -0.4473
      9 C          18.1050   38.9164   31.5004 C.ar    1  UNL1        0.1791
     10 C          17.2697   39.4590   32.4678 C.ar    1  UNL1        0.0407
     11 C          17.8461   39.9839   33.6353 C.ar    1  UNL1        0.0033
     12 C          19.2384   39.9367   33.7707 C.ar    1  UNL1        0.0033
     13 C          20.0470   39.3793   32.7699 C.ar    1  UNL1        0.0401
     14 C          19.5007   38.8476   31.5918 C.ar    1  UNL1        0.1730
     15 O          20.2008   38.2852   30.5617 O.3     1  UNL1       -0.4684
     16 C          21.0042   39.1551   29.7770 C.3     1  UNL1        0.2526
     17 C          12.9973   38.2591   31.3480 C.3     1  UNL1        0.1096
     18 C          12.3555   39.6242   31.5380 C.3     1  UNL1        0.0266
     19 S          11.4618   37.3564   28.6496 S.3     1  UNL1       -0.0658
     20 C          11.5457   36.4553   27.0769 C.3     1  UNL1        0.1501
     21 C          10.8401   37.2605   26.0036 C.2     1  UNL1        0.2376
     22 N          11.4617   38.4784   25.7614 N.am    1  UNL1       -0.2832
     23 O           9.8360   36.8213   25.4484 O.2     1  UNL1       -0.2738
     24 H          12.2479   38.6851   26.3167 H       1  UNL1        0.1549
     25 C          11.0943   39.4536   24.8095 C.ar    1  UNL1        0.0503
     26 C          11.4589   39.2124   23.4795 C.ar    1  UNL1        0.0147
     27 C          11.1304   40.1257   22.4746 C.ar    1  UNL1        0.0024
     28 C          10.4304   41.3022   22.7752 C.ar    1  UNL1        0.0141
     29 C          10.0695   41.5363   24.1094 C.ar    1  UNL1        0.0024
     30 C          10.3978   40.6220   25.1171 C.ar    1  UNL1        0.0147
     31 C          10.0722   42.2893   21.6891 C.2     1  UNL1        0.0729
     32 O           9.6862   43.4419   22.0602 O.co2   1  UNL1       -0.5446
     33 O          10.1860   41.8932   20.4860 O.co2   1  UNL1       -0.5446
@<TRIPOS>UNITY_ATOM_ATTR
32 1
charge -1
@<TRIPOS>BOND
     1     6     1    1
     2     6     7   ar
     3     6     8   ar
     4     1     2   ar
     5     1     5   ar
     6     2     3   ar
     7     2    17    1
     8     3     4   ar
     9     3    19    1
    10     4     5   ar
    11    19    20    1
    12    20    21    1
    13    21    22   am
    14    21    23    2
    15    22    25    1
    16    25    26   ar
    17    25    30   ar
    18    26    27   ar
    19    27    28   ar
    20    28    29   ar
    21    28    31    1
    22    29    30   ar
    23    31    32   ar
    24    31    33   ar
    25    17    18    1
    26     7    10   ar
    27     8     9   ar
    28     9    10   ar
    29     9    14   ar
    30    10    11   ar
    31    11    12   ar
    32    12    13   ar
    33    13    14   ar
    34    14    15    1
    35    15    16    1
    36    22    24    1
@<TRIPOS>MOLECULE
BDB50151001
 39 42 0 0 0
SMALL
GASTEIGER

@<TRIPOS>ATOM
      1 C          12.2170   37.5615   28.1339 C.ar    1  UNL1       -0.0197
      2 C          14.3946   38.1201   29.8156 C.ar    1  UNL1        0.1385
      3 C          13.5292   37.4332   27.6634 C.ar    1  UNL1       -0.0011
      4 C          12.0052   37.9844   29.4508 C.ar    1  UNL1       -0.0011
      5 C          14.6139   37.7144   28.4978 C.ar    1  UNL1        0.0366
      6 C          13.0873   38.2682   30.2818 C.ar    1  UNL1        0.0366
      7 C          11.0503   37.1840   27.2506 C.3     1  UNL1        0.0563
      8 CA         11.4262   37.1913   25.7708 C.3     1  UNL1        0.1432
      9 C          10.8697   39.4918   25.3269 C.2     1  UNL1        0.0574
     10 N          11.7547   38.5515   25.2788 N.2     1  UNL1       -0.2706
     11 C           9.6534   39.5509   26.2176 C.3     1  UNL1        0.0518
     12 C          11.0132   40.5902   24.3534 C.2     1  UNL1        0.0509
     13 C          10.7340   40.3378   23.0608 C.2     1  UNL1        0.1347
     14 O          10.3168   39.1174   22.5491 O.2     1  UNL1       -0.5055
     15 H          10.1916   38.3871   23.1226 H       1  UNL1        0.2922
     16 C          10.8856   41.3901   22.0310 C.ar    1  UNL1        0.0338
     17 C          11.6936   41.2132   20.8957 C.ar    1  UNL1        0.0030
     18 C          10.2235   42.6174   22.1912 C.ar    1  UNL1        0.0030
     19 C          11.8172   42.2278   19.9403 C.ar    1  UNL1        0.0001
     20 C          10.3467   43.6301   21.2379 C.ar    1  UNL1        0.0001
     21 C          11.1424   43.4338   20.1109 C.ar    1  UNL1        0.0000
     22 C          10.4328   36.5093   24.7694 C.2     1  UNL1        0.0729
     23 O          10.9434   36.2049   23.6371 O.co2   1  UNL1       -0.5472
     24 OXT         9.2471   36.3611   25.1759 O.co2   1  UNL1       -0.5472
     25 O          15.3671   38.4001   30.7365 O.3     1  UNL1       -0.4750
     26 C          16.6572   38.7188   30.2120 C.3     1  UNL1        0.2118
     27 C          17.6549   38.7081   31.3663 C.3     1  UNL1        0.0960
     28 N          19.3666   38.3437   29.5997 N.ar    1  UNL1       -0.2129
     29 C          20.6794   38.4705   29.5293 C.ar    1  UNL1        0.2289
     30 O          21.2609   38.9026   30.6923 O.2     1  UNL1       -0.4392
     31 C          19.0599   38.7142   30.8895 C.ar    1  UNL1        0.0960
     32 C          20.2151   39.0540   31.5586 C.ar    1  UNL1        0.1387
     33 C          20.5278   39.5211   32.9198 C.3     1  UNL1        0.0738
     34 C          21.5698   38.2169   28.4005 C.ar    1  UNL1        0.0535
     35 C          22.9596   38.2534   28.5926 C.ar    1  UNL1        0.0046
     36 C          21.0799   37.9342   27.1159 C.ar    1  UNL1        0.0046
     37 C          23.8363   38.0149   27.5314 C.ar    1  UNL1        0.0002
     38 C          21.9570   37.6964   26.0532 C.ar    1  UNL1        0.0002
     39 C          23.3343   37.7367   26.2617 C.ar    1  UNL1        0.0000
@<TRIPOS>UNITY_ATOM_ATTR
24 1
charge -1
@<TRIPOS>BOND
     1    28    29   ar
     2    28    31   ar
     3    29    30   ar
     4    29    34    1
     5    30    32   ar
     6    31    32   ar
     7    31    27    1
     8    32    33    1
     9    12    13    2
    10    12     9    1
    11    13    14    1
    12    13    16    1
    13     9    10    2
    14     9    11    1
    15     8    22    1
    16     8    10    1
    17     8     7    1
    18    22    23   ar
    19    22    24   ar
    20    34    35   ar
    21    34    36   ar
    22     7     1    1
    23    16    17   ar
    24    16    18   ar
    25    27    26    1
    26     1     3   ar
    27     1     4   ar
    28     2     5   ar
    29     2     6   ar
    30     2    25    1
    31    26    25    1
    32     3     5   ar
    33     4     6   ar
    34    35    37   ar
    35    36    38   ar
    36    17    19   ar
    37    18    20   ar
    38    37    39   ar
    39    38    39   ar
    40    19    21   ar
    41    20    21   ar
    42    14    15    1
@<TRIPOS>MOLECULE
BDB50124379
 33 36 0 0 0
SMALL
GASTEIGER

@<TRIPOS>ATOM
      1 C          23.8740   38.1502   29.1770 C.ar    1  UNL1        0.1375
      2 C          23.4719   37.1746   30.1000 C.ar    1  UNL1        0.0368
      3 C          24.3999   36.5265   30.9318 C.ar    1  UNL1        0.0078
      4 C          25.2358   38.5091   29.0488 C.ar    1  UNL1        0.0489
      5 C          26.1174   37.8395   29.9082 C.ar    1  UNL1        0.1757
      6 C          25.7575   36.8699   30.8262 C.ar    1  UNL1        0.0578
      7 C          26.9897   36.4925   31.4438 C.ar    1  UNL1        0.1229
      8 N          28.0059   37.2139   30.9418 N.ar    1  UNL1       -0.0770
      9 O          27.4593   38.0412   29.9826 O.2     1  UNL1       -0.3536
     10 C          27.2247   35.4922   32.4828 C.ar    1  UNL1        0.0209
     11 C          26.6719   35.6379   33.7619 C.ar    1  UNL1        0.0016
     12 C          26.9025   34.6741   34.7475 C.ar    1  UNL1        0.0000
     13 C          27.6820   33.5536   34.4610 C.ar    1  UNL1        0.0000
     14 C          28.2280   33.3927   33.1897 C.ar    1  UNL1        0.0000
     15 C          27.9993   34.3556   32.2038 C.ar    1  UNL1        0.0016
     16 O          23.0161   38.8226   28.3411 O.3     1  UNL1       -0.4755
     17 C          22.5448   38.1461   27.1766 C.3     1  UNL1        0.2093
     18 C          21.0235   38.1265   27.2385 C.3     1  UNL1        0.0946
     19 C          20.4893   38.9363   28.4143 C.3     1  UNL1        0.2093
     20 O          19.8556   38.0282   29.3140 O.3     1  UNL1       -0.4753
     21 C          17.7880   39.1712   32.1804 C.ar    1  UNL1       -0.0008
     22 C          18.0928   38.6259   30.9287 C.ar    1  UNL1        0.0366
     23 C          19.4200   38.5376   30.5087 C.ar    1  UNL1        0.1385
     24 C          20.4347   39.0048   31.3493 C.ar    1  UNL1        0.0366
     25 C          20.1297   39.5500   32.5987 C.ar    1  UNL1       -0.0008
     26 C          18.8019   39.6277   33.0303 C.ar    1  UNL1       -0.0164
     27 C          18.4654   40.2207   34.3733 C.3     1  UNL1        0.0679
     28 C          19.4378   41.3417   34.7318 C.2     1  UNL1        0.0547
     29 O          20.3546   41.0229   35.5416 O.co2   1  UNL1       -0.5488
     30 O          19.1881   42.4629   34.2006 O.co2   1  UNL1       -0.5488
     31 C          25.7019   39.5673   28.0805 C.3     1  UNL1        0.0326
     32 C          25.7498   40.9485   28.7356 C.3     1  UNL1        0.0049
     33 C          27.1814   41.4312   28.9071 C.3     1  UNL1        0.0004
@<TRIPOS>UNITY_ATOM_ATTR
29 1
charge -1
@<TRIPOS>BOND
     1    21    22   ar
     2    21    26   ar
     3    22    23   ar
     4    23    24   ar
     5    23    20    1
     6    24    25   ar
     7    25    26   ar
     8    26    27    1
     9    27    28    1
    10    28    29   ar
    11    28    30   ar
    12    20    19    1
    13    19    18    1
    14    18    17    1
    15    17    16    1
    16    16     1    1
    17     1     2   ar
    18     1     4   ar
    19     2     3   ar
    20     3     6   ar
    21     4     5   ar
    22     4    31    1
    23     5     6   ar
    24     5     9   ar
    25     6     7   ar
    26     7     8   ar
    27     7    10    1
    28     8     9   ar
    29    10    11   ar
    30    10    15   ar
    31    11    12   ar
    32    12    13   ar
    33    13    14   ar
    34    14    15   ar
    35    31    32    1
    36    32    33    1
@<TRIPOS>MOLECULE
BDB50132563
 30 32 0 0 0
SMALL
GASTEIGER

@<TRIPOS>ATOM
      1 C          26.0527   36.3008   31.5105 C.ar    1  UNL1        0.1940
      2 C          25.1818   37.1096   30.7388 C.ar    1  UNL1        0.0616
      3 N          27.3390   36.5889   31.2551 N.ar    1  UNL1       -0.0730
      4 C          26.0257   37.9283   30.0146 C.ar    1  UNL1        0.1756
      5 O          27.3148   37.6068   30.3163 O.2     1  UNL1       -0.3537
      6 C          25.6144   38.9180   29.1126 C.ar    1  UNL1        0.0486
      7 C          24.2076   39.0626   29.0044 C.ar    1  UNL1        0.1343
      8 C          23.7971   37.2331   30.5597 C.ar    1  UNL1        0.0034
      9 C          23.3031   38.2074   29.6724 C.ar    1  UNL1        0.0117
     10 C          25.6789   35.2416   32.4742 C.3     1  UNL1        0.4381
     11 F          24.6016   35.5827   33.2319 F       1  UNL1       -0.1643
     12 F          25.3536   34.0794   31.8475 F       1  UNL1       -0.1643
     13 F          26.6787   34.9459   33.3471 F       1  UNL1       -0.1643
     14 O          23.6911   40.0042   28.1425 O.3     1  UNL1       -0.4696
     15 C          23.5493   41.3083   28.7628 C.3     1  UNL1        0.2242
     16 C          24.5806   42.2637   28.1807 C.ar    1  UNL1        0.0226
     17 C          25.3162   43.1027   29.0320 C.ar    1  UNL1       -0.0004
     18 C          24.8011   42.3491   26.7974 C.ar    1  UNL1       -0.0004
     19 C          25.7531   43.2300   26.2808 C.ar    1  UNL1       -0.0002
     20 C          26.2683   43.9827   28.5137 C.ar    1  UNL1       -0.0002
     21 C          26.4898   44.0443   27.1394 C.ar    1  UNL1       -0.0000
     22 C          22.1447   41.9009   28.4965 C.2     1  UNL1        0.0943
     23 O          21.2730   41.0499   28.1407 O.co2   1  UNL1       -0.5452
     24 O          22.0046   43.1484   28.6590 O.co2   1  UNL1       -0.5452
     25 C          26.6021   39.7125   28.2999 C.3     1  UNL1        0.0326
     26 C          26.8096   39.1266   26.9025 C.3     1  UNL1        0.0049
     27 C          27.6686   40.0395   26.0418 C.3     1  UNL1        0.0004
     28 C          21.8059   38.2646   29.4525 C.3     1  UNL1        0.0294
     29 C          21.3053   37.1725   28.5035 C.3     1  UNL1        0.0048
     30 C          21.2476   37.6673   27.0669 C.3     1  UNL1        0.0004
@<TRIPOS>UNITY_ATOM_ATTR
24 1
charge -1
@<TRIPOS>BOND
     1     1     2   ar
     2     1     3   ar
     3     1    10    1
     4     2     4   ar
     5     2     8   ar
     6     3     5   ar
     7     4     5   ar
     8     4     6   ar
     9     6     7   ar
    10     6    25    1
    11     7    14    1
    12     7     9   ar
    13    10    11    1
    14    10    12    1
    15    10    13    1
    16    14    15    1
    17     8     9   ar
    18     9    28    1
    19    15    22    1
    20    15    16    1
    21    22    23   ar
    22    22    24   ar
    23    16    17   ar
    24    16    18   ar
    25    25    26    1
    26    28    29    1
    27    17    20   ar
    28    18    19   ar
    29    26    27    1
    30    29    30    1
    31    19    21   ar
    32    20    21   ar
@<TRIPOS>MOLECULE
BDB50109547
 30 33 0 0 0
SMALL
GASTEIGER

@<TRIPOS>ATOM
      1 O          20.0659   37.9042   29.3704 O.3     1  UNL1       -0.4734
      2 C          23.4708   39.9241   28.0394 C.ar    1  UNL1       -0.0192
      3 C          21.2198   38.4826   28.9166 C.ar    1  UNL1        0.1386
      4 C          23.5067   38.5276   28.1291 C.ar    1  UNL1       -0.0011
      5 C          22.2933   40.5940   28.3887 C.ar    1  UNL1       -0.0011
      6 C          22.3881   37.8089   28.5624 C.ar    1  UNL1        0.0366
      7 C          21.1763   39.8764   28.8196 C.ar    1  UNL1        0.0366
      8 C          24.6986   40.6925   27.6145 C.3     1  UNL1        0.0616
      9 C          24.9652   41.9248   28.4836 C.3     1  UNL1        0.1555
     10 C          26.3027   41.8105   29.2662 C.2     1  UNL1        0.0777
     11 O          26.4200   40.8318   30.0575 O.co2   1  UNL1       -0.5467
     12 O          27.1335   42.7346   29.0158 O.co2   1  UNL1       -0.5467
     13 O          24.9903   43.0667   27.5912 O.3     1  UNL1       -0.3503
     14 C          23.8165   43.8719   27.6912 C.3     1  UNL1        0.1426
     15 C          23.5031   44.0662   29.1628 C.3     1  UNL1        0.0347
     16 C          19.1151   38.7701   29.9925 C.3     1  UNL1        0.2297
     17 C          18.7394   38.1555   31.3347 C.3     1  UNL1        0.1533
     18 N          18.2526   39.1471   32.2790 N.ar    1  UNL1       -0.3234
     19 C          19.0203   39.7269   33.2706 C.ar    1  UNL1        0.0600
     20 C          16.9608   39.6363   32.3078 C.ar    1  UNL1        0.0600
     21 C          18.1966   40.6255   33.9504 C.ar    1  UNL1        0.0172
     22 C          16.9027   40.5688   33.3458 C.ar    1  UNL1        0.0172
     23 C          20.3657   39.5350   33.6318 C.ar    1  UNL1        0.0172
     24 C          15.8392   39.3386   31.5152 C.ar    1  UNL1        0.0172
     25 C          15.6816   41.2328   33.5967 C.ar    1  UNL1        0.0015
     26 C          18.7372   41.3647   35.0261 C.ar    1  UNL1        0.0015
     27 C          20.0742   41.1805   35.3915 C.ar    1  UNL1        0.0001
     28 C          14.5614   40.9443   32.8105 C.ar    1  UNL1        0.0001
     29 C          14.6426   40.0085   31.7843 C.ar    1  UNL1        0.0015
     30 C          20.8752   40.2749   34.7028 C.ar    1  UNL1        0.0015
@<TRIPOS>UNITY_ATOM_ATTR
12 1
charge -1
@<TRIPOS>BOND
     1    18    19   ar
     2    18    20   ar
     3    18    17    1
     4    19    21   ar
     5    19    23   ar
     6    20    22   ar
     7    20    24   ar
     8    21    22   ar
     9    21    26   ar
    10    22    25   ar
    11    10     9    1
    12    10    11   ar
    13    10    12   ar
    14     9     8    1
    15     9    13    1
    16     8     2    1
    17    17    16    1
    18     2     4   ar
    19     2     5   ar
    20     3     6   ar
    21     3     7   ar
    22     3     1    1
    23    23    30   ar
    24    24    29   ar
    25    13    14    1
    26     4     6   ar
    27     5     7   ar
    28    25    28   ar
    29    26    27   ar
    30     1    16    1
    31    14    15    1
    32    27    30   ar
    33    28    29   ar
@<TRIPOS>MOLECULE
BDB50172003
 32 34 0 0 0
SMALL
GASTEIGER

@<TRIPOS>ATOM
      1 O          27.4625   36.5209   29.0389 O.3     1  UNL1       -0.4753
      2 C          21.8026   38.3727   28.6458 C.3     1  UNL1        0.1683
      3 O          22.1601   37.6770   29.8927 O.3     1  UNL1       -0.4774
      4 C          23.1183   38.8546   27.9901 C.3     1  UNL1        0.0750
      5 C          24.0887   37.9573   28.6635 C.ar    1  UNL1        0.0187
      6 C          23.4793   37.3483   29.7447 C.ar    1  UNL1        0.1350
      7 C          25.4243   37.7314   28.3731 C.ar    1  UNL1        0.0358
      8 C          24.1698   36.5039   30.5876 C.ar    1  UNL1        0.0397
      9 C          26.1445   36.8593   29.1970 C.ar    1  UNL1        0.1384
     10 C          25.5151   36.2597   30.3050 C.ar    1  UNL1        0.0400
     11 C          21.0234   37.3303   27.7553 C.2     1  UNL1        0.0866
     12 O          20.5536   36.3245   28.3660 O.co2   1  UNL1       -0.5457
     13 O          20.9358   37.6062   26.5235 O.co2   1  UNL1       -0.5457
     14 C          20.8338   39.5378   29.0121 C.3     1  UNL1        0.0421
     15 C          21.3997   40.9123   28.6374 C.3     1  UNL1        0.0040
     16 C          20.4163   39.5379   30.4908 C.3     1  UNL1        0.0040
     17 C          28.4002   37.5954   29.0305 C.3     1  UNL1        0.2093
     18 C          28.7790   37.8699   27.5817 C.3     1  UNL1        0.0946
     19 C          29.2941   39.2906   27.3952 C.3     1  UNL1        0.2093
     20 O          28.3442   39.9931   26.5967 O.3     1  UNL1       -0.4745
     21 C          26.1990   40.9738   26.5352 C.ar    1  UNL1        0.0945
     22 C          25.1626   41.7128   27.1157 C.ar    1  UNL1        0.0516
     23 C          25.2906   42.2172   28.4115 C.ar    1  UNL1        0.1478
     24 C          27.3842   40.7249   27.2415 C.ar    1  UNL1        0.1492
     25 C          27.5060   41.2319   28.5378 C.ar    1  UNL1        0.0409
     26 CL         25.9679   40.3816   24.9258 Cl      1  UNL1       -0.0790
     27 C          26.4666   41.9729   29.1188 C.ar    1  UNL1        0.0404
     28 O          24.2070   42.9189   28.8555 O.3     1  UNL1       -0.4044
     29 C          24.3523   44.3187   29.0343 C.3     1  UNL1        0.5753
     30 F          23.1442   44.9040   28.8809 F       1  UNL1       -0.1328
     31 F          24.8043   44.6039   30.2737 F       1  UNL1       -0.1328
     32 F          25.1930   44.8403   28.1157 F       1  UNL1       -0.1328
@<TRIPOS>UNITY_ATOM_ATTR
13 1
charge -1
@<TRIPOS>BOND
     1     2     3    1
     2     2     4    1
     3     2    11    1
     4     2    14    1
     5     3     6    1
     6     4     5    1
     7     5     6   ar
     8     5     7   ar
     9    11    12   ar
    10    11    13   ar
    11    29    28    1
    12    29    30    1
    13    29    31    1
    14    29    32    1
    15     6     8   ar
    16    21    22   ar
    17    21    24   ar
    18    21    26    1
    19    22    23   ar
    20    28    23    1
    21    23    27   ar
    22     7     9   ar
    23    24    25   ar
    24    24    20    1
    25    14    15    1
    26    14    16    1
    27     8    10   ar
    28    25    27   ar
    29     9    10   ar
    30     9     1    1
    31    20    19    1
    32    18    19    1
    33    18    17    1
    34     1    17    1
@<TRIPOS>MOLECULE
BDB24566
 22 23 0 0 0
SMALL
GASTEIGER

@<TRIPOS>ATOM
      1 C          11.6461   38.9355   24.7482 C.ar    1  UNL1        0.1367
      2 C          10.3463   38.5182   24.5457 C.ar    1  UNL1        0.0652
      3 C          11.9322   37.2805   26.3372 C.ar    1  UNL1        0.1923
      4 N          12.4403   38.3108   25.6376 N.ar    1  UNL1       -0.2061
      5 N          10.6806   36.8236   26.2167 N.ar    1  UNL1       -0.2095
      6 C           9.9270   37.4585   25.3133 C.ar    1  UNL1        0.1433
      7 CL          8.3281   36.8500   25.1615 Cl      1  UNL1       -0.0612
      8 N          12.1215   40.0224   23.9842 N.pl3   1  UNL1       -0.2981
      9 H          13.0575   40.2693   24.1639 H       1  UNL1        0.1536
     10 C          11.4836   40.8172   23.0048 C.ar    1  UNL1        0.0450
     11 C          10.4956   41.7699   23.3816 C.ar    1  UNL1       -0.0123
     12 C           9.8528   42.5508   22.3873 C.ar    1  UNL1       -0.0246
     13 C          10.2341   42.4111   21.0447 C.ar    1  UNL1       -0.0045
     14 C          11.2191   41.5018   20.6784 C.ar    1  UNL1        0.0009
     15 C          11.8327   40.7153   21.6492 C.ar    1  UNL1        0.0143
     16 C          10.1237   41.9299   24.8377 C.3     1  UNL1        0.0320
     17 C           8.7819   43.5548   22.7205 C.3     1  UNL1        0.0307
     18 S          12.9603   36.4756   27.5424 S.3     1  UNL1       -0.0696
     19 C          13.4921   37.9201   28.5148 C.3     1  UNL1        0.1066
     20 C          14.9331   37.6138   28.9228 C.2     1  UNL1        0.0617
     21 O          15.6546   38.6272   29.1550 O.co2   1  UNL1       -0.5483
     22 O          15.2497   36.3882   28.9253 O.co2   1  UNL1       -0.5483
@<TRIPOS>UNITY_ATOM_ATTR
22 1
charge -1
@<TRIPOS>BOND
     1     1     2   ar
     2     1     4   ar
     3     1     8    1
     4     2     6   ar
     5     3     4   ar
     6     3     5   ar
     7     3    18    1
     8     5     6   ar
     9     6     7    1
    10     8    10    1
    11    10    11   ar
    12    10    15   ar
    13    11    12   ar
    14    11    16    1
    15    12    13   ar
    16    12    17    1
    17    13    14   ar
    18    14    15   ar
    19    18    19    1
    20    19    20    1
    21    20    21   ar
    22    20    22   ar
    23     8     9    1
