@<TRIPOS>MOLECULE
735
53 55 1 0 0
SMALL
NO_CHARGES


@<TRIPOS>ATOM
      1 C1         11.3340   38.5270   30.6240 C.3       1 735    0.0000
      2 C2         12.7960   38.3530   30.2760 C.ar      1 735    0.0000
      3 N3         13.7580   38.9120   31.2150 N.ar      1 735    0.0000
      4 C4         15.0540   38.8430   30.8690 C.ar      1 735    0.0000
      5 S5         15.1700   38.1210   29.2670 S.2       1 735    0.0000
      6 C6         13.4500   37.9350   29.1690 C.ar      1 735    0.0000
      7 C7         12.8710   37.3880   27.9350 C.2       1 735    0.0000
      8 O8         13.6940   37.2080   27.0350 O.2       1 735    0.0000
      9 N9         11.5570   37.1190   27.8330 N.am      1 735    0.0000
     10 C10        10.9270   36.7910   26.5800 C.3       1 735    0.0000
     11 C11        10.6850   37.9790   25.6820 C.ar      1 735    0.0000
     12 C12        10.4630   39.2930   26.1770 C.ar      1 735    0.0000
     13 C13        10.2460   40.3530   25.2760 C.ar      1 735    0.0000
     14 C14        10.2480   40.1170   23.8920 C.ar      1 735    0.0000
     15 O15        10.0410   41.1880   23.0170 O.3       1 735    0.0000
     16 C16        11.1340   41.6070   22.1970 C.3       1 735    0.0000
     17 C17        10.7040   42.9690   21.6290 C.3       1 735    0.0000
     18 C18        12.4890   41.7080   22.9210 C.3       1 735    0.0000
     19 C19        11.2580   40.6940   20.9760 C.2       1 735    0.0000
     20 O20        12.3430   40.2150   20.6370 O.co2     1 735    0.0000
     21 O21        10.2410   40.4190   20.3400 O.co2     1 735    0.0000
     22 C22        10.4600   38.8120   23.3960 C.ar      1 735    0.0000
     23 C23        10.6780   37.7500   24.2950 C.ar      1 735    0.0000
     24 C24        16.1600   39.2560   31.7170 C.ar      1 735    0.0000
     25 C25        17.4610   38.7740   31.4610 C.ar      1 735    0.0000
     26 C26        18.5280   39.1460   32.2820 C.ar      1 735    0.0000
     27 C27        18.3200   40.0100   33.3770 C.ar      1 735    0.0000
     28 C28        17.0260   40.4990   33.6260 C.ar      1 735    0.0000
     29 C29        15.9470   40.1280   32.8040 C.ar      1 735    0.0000
     30 C30        19.4870   40.3810   34.2720 C.3       1 735    0.0000
     31 F31        19.2790   41.5360   34.8480 F         1 735    0.0000
     32 F32        20.6060   40.3670   33.5900 F         1 735    0.0000
     33 F33        19.5540   39.4490   35.1910 F         1 735    0.0000
     34 H34        11.2000   39.4310   31.2010 H         1 735    0.0000
     35 H35        10.9990   37.6990   31.2280 H         1 735    0.0000
     36 H36        10.7000   38.6120   29.7580 H         1 735    0.0000
     37 H37        14.9620   40.5130   33.0240 H         1 735    0.0000
     38 H38        16.8510   41.1610   34.4610 H         1 735    0.0000
     39 H39        19.5110   38.7550   32.0690 H         1 735    0.0000
     40 H40        17.6420   38.1060   30.6320 H         1 735    0.0000
     41 H41        10.9700   37.1950   28.6380 H         1 735    0.0000
     42 H42         9.9940   36.2980   26.8090 H         1 735    0.0000
     43 H43        11.5790   36.0810   26.0940 H         1 735    0.0000
     44 H44        10.8440   36.7510   23.9210 H         1 735    0.0000
     45 H45        10.4600   38.6230   22.3350 H         1 735    0.0000
     46 H46        10.0820   41.3490   25.6630 H         1 735    0.0000
     47 H47        10.4590   39.5040   27.2350 H         1 735    0.0000
     48 H48        11.4980   43.4240   21.0550 H         1 735    0.0000
     49 H49        10.4290   43.6360   22.4300 H         1 735    0.0000
     50 H50         9.8470   42.8640   20.9850 H         1 735    0.0000
     51 H51        13.2060   42.2320   22.3050 H         1 735    0.0000
     52 H52        12.4010   42.2410   23.8590 H         1 735    0.0000
     53 H53        12.9130   40.7350   23.1340 H         1 735    0.0000
@<TRIPOS>BOND
     1    1    2 1
     2    1   34 1
     3    1   35 1
     4    1   36 1
     5    2    3 ar
     6    2    6 ar
     7    3    4 ar
     8    4    5 ar
     9    4   24 1
    10    5    6 ar
    11    6    7 1
    12    7    8 2
    13    7    9 am
    14    9   10 1
    15    9   41 1
    16   10   11 1
    17   10   42 1
    18   10   43 1
    19   11   12 ar
    20   11   23 ar
    21   12   13 ar
    22   12   47 1
    23   13   14 ar
    24   13   46 1
    25   14   15 1
    26   14   22 ar
    27   15   16 1
    28   16   17 1
    29   16   18 1
    30   16   19 1
    31   17   48 1
    32   17   49 1
    33   17   50 1
    34   18   51 1
    35   18   52 1
    36   18   53 1
    37   19   20 2
    38   19   21 2
    39   22   23 ar
    40   22   45 1
    41   23   44 1
    42   24   25 ar
    43   24   29 ar
    44   25   26 ar
    45   25   40 1
    46   26   27 ar
    47   26   39 1
    48   27   28 ar
    49   27   30 1
    50   28   29 ar
    51   28   38 1
    52   29   37 1
    53   30   31 1
    54   30   32 1
    55   30   33 1
@<TRIPOS>SUBSTRUCTURE
     1 735     1 RESIDUE           4 A     735     0 ROOT
