@<TRIPOS>MOLECULE
BDB50085040
 60 63 0 0 0
SMALL
GASTEIGER

@<TRIPOS>ATOM
      1 C           0.7320   -0.5260   -0.1310 C.ar    1  UNL1        0.1420
      2 C           2.2570    1.1290   -0.0750 C.ar    1  UNL1        0.0276
      3 C           0.8590    0.8580   -0.1840 C.ar    1  UNL1        0.0284
      4 O           1.9610   -1.1010    0.0120 O.2     1  UNL1       -0.4619
      5 C           2.8740   -0.0980    0.0440 C.ar    1  UNL1        0.1008
      6 C          -0.4810   -1.2260   -0.2080 C.ar    1  UNL1        0.0370
      7 C          -0.3110    1.6250   -0.3140 C.ar    1  UNL1       -0.0469
      8 C          -9.7520   -0.0050   -1.6480 C.ar    1  UNL1        0.0546
      9 C          -1.6410   -0.4270   -0.3290 C.ar    1  UNL1        0.1272
     10 C         -11.1890    4.0230   -0.2950 C.2     1  UNL1        0.0460
     11 C           2.9960    2.3770   -0.0910 C.ar    1  UNL1       -0.0143
     12 C          -9.2330   -0.5410   -0.4590 C.ar    1  UNL1        0.0262
     13 C         -10.6830    1.0360   -1.6030 C.ar    1  UNL1       -0.0388
     14 C          -1.5500    0.9710   -0.3850 C.ar    1  UNL1       -0.0189
     15 C         -11.1150    1.5520   -0.3750 C.ar    1  UNL1       -0.0405
     16 O         -10.8990    4.4480    0.8600 O.co2   1  UNL1       -0.5495
     17 C         -12.0310    2.7470   -0.3290 C.3     1  UNL1        0.0121
     18 C          -9.6920   -0.0440    0.7690 C.ar    1  UNL1       -0.0466
     19 S          -7.9300   -1.7710   -0.4150 S.3     1  UNL1       -0.1236
     20 CL         -9.2550   -0.5630   -3.2100 Cl      1  UNL1       -0.0824
     21 C         -10.6210    0.9960    0.8100 C.ar    1  UNL1       -0.0571
     22 O         -10.8900    4.5020   -1.4270 O.co2   1  UNL1       -0.5495
     23 C          -0.5460   -2.7300   -0.1290 C.3     1  UNL1       -0.0209
     24 O          -2.8230   -1.1260   -0.3860 O.3     1  UNL1       -0.4915
     25 C          -5.2000   -1.3640   -0.4140 C.3     1  UNL1       -0.0093
     26 C          -6.5230   -0.6140   -0.4530 C.3     1  UNL1        0.0014
     27 C          -4.0350   -0.3760   -0.4280 C.3     1  UNL1        0.0904
     28 C           2.7170    3.3460   -1.0640 C.ar    1  UNL1       -0.0539
     29 C           3.9940    2.6340    0.8600 C.ar    1  UNL1       -0.0539
     30 C          -0.7990   -3.2100    1.3010 C.3     1  UNL1       -0.0517
     31 C          -0.8550   -4.7280    1.3750 C.3     1  UNL1       -0.0650
     32 C           4.7010    3.8400    0.8350 C.ar    1  UNL1       -0.0612
     33 C           3.4250    4.5500   -1.0860 C.ar    1  UNL1       -0.0612
     34 C           4.4160    4.7960   -0.1370 C.ar    1  UNL1       -0.0617
     35 H           3.8920   -0.2350    0.1439 H       1  UNL1        0.1036
     36 H          -0.2596    2.6548   -0.3566 H       1  UNL1        0.0626
     37 H         -11.0553    1.4278   -2.4821 H       1  UNL1        0.0635
     38 H          -2.4121    1.5303   -0.4804 H       1  UNL1        0.0654
     39 H         -12.6556    2.7531   -1.1977 H       1  UNL1        0.0373
     40 H         -12.6445    2.6970    0.5462 H       1  UNL1        0.0373
     41 H          -9.3398   -0.4508    1.6497 H       1  UNL1        0.0629
     42 H         -10.9459    1.3575    1.7203 H       1  UNL1        0.0621
     43 H           0.3827   -3.1359   -0.4720 H       1  UNL1        0.0315
     44 H          -1.3584   -3.0618   -0.7413 H       1  UNL1        0.0315
     45 H          -5.1311   -2.0044   -1.2684 H       1  UNL1        0.0306
     46 H          -5.1542   -1.9463    0.4825 H       1  UNL1        0.0306
     47 H          -6.5817    0.0364    0.3946 H       1  UNL1        0.0381
     48 H          -6.5691   -0.0506   -1.3615 H       1  UNL1        0.0381
     49 H          -4.0678    0.2119   -1.3214 H       1  UNL1        0.0697
     50 H          -4.0949    0.2825    0.4133 H       1  UNL1        0.0697
     51 H           1.9840    3.1691   -1.7686 H       1  UNL1        0.0624
     52 H           4.2079    1.9289    1.5825 H       1  UNL1        0.0624
     53 H          -1.7308   -2.8102    1.6427 H       1  UNL1        0.0266
     54 H           0.0079   -2.8723    1.9173 H       1  UNL1        0.0266
     55 H          -1.6573   -5.0855    0.7639 H       1  UNL1        0.0230
     56 H          -1.0169   -5.0299    2.3887 H       1  UNL1        0.0230
     57 H           0.0697   -5.1365    1.0245 H       1  UNL1        0.0230
     58 H           5.4348    4.0220    1.5375 H       1  UNL1        0.0618
     59 H           3.2140    5.2586   -1.8060 H       1  UNL1        0.0618
     60 H           4.9382    5.6860   -0.1546 H       1  UNL1        0.0618
@<TRIPOS>UNITY_ATOM_ATTR
22 1
charge -1
@<TRIPOS>BOND
     1     1     3   ar
     2     1     4   ar
     3     1     6   ar
     4     2     3   ar
     5     2     5   ar
     6     2    11    1
     7     3     7   ar
     8     4     5   ar
     9     6     9   ar
    10     6    23    1
    11     7    14   ar
    12     8    12   ar
    13     8    13   ar
    14     8    20    1
    15     9    14   ar
    16     9    24    1
    17    10    16   ar
    18    10    17    1
    19    10    22   ar
    20    11    28   ar
    21    11    29   ar
    22    12    18   ar
    23    12    19    1
    24    13    15   ar
    25    15    17    1
    26    15    21   ar
    27    18    21   ar
    28    19    26    1
    29    23    30    1
    30    24    27    1
    31    25    26    1
    32    25    27    1
    33    28    33   ar
    34    29    32   ar
    35    30    31    1
    36    32    34   ar
    37    33    34   ar
    38     5    35    1
    39     7    36    1
    40    13    37    1
    41    14    38    1
    42    17    39    1
    43    17    40    1
    44    18    41    1
    45    21    42    1
    46    23    43    1
    47    23    44    1
    48    25    45    1
    49    25    46    1
    50    26    47    1
    51    26    48    1
    52    27    49    1
    53    27    50    1
    54    28    51    1
    55    29    52    1
    56    30    53    1
    57    30    54    1
    58    31    55    1
    59    31    56    1
    60    31    57    1
    61    32    58    1
    62    33    59    1
    63    34    60    1
@<TRIPOS>MOLECULE
BDB50085042
 46 47 0 0 0
SMALL
GASTEIGER

@<TRIPOS>ATOM
      1 C           1.0920   -0.5140    0.8050 C.ar    1  UNL1       -0.0475
      2 C          -0.1880   -1.0740    0.8110 C.ar    1  UNL1       -0.0192
      3 C          -1.3100   -0.3300    0.4240 C.ar    1  UNL1        0.1221
      4 C          -1.1360    0.9990    0.0510 C.ar    1  UNL1       -0.0192
      5 C           0.1420    1.5710    0.0400 C.ar    1  UNL1       -0.0475
      6 C           1.2590    0.8110    0.3970 C.ar    1  UNL1        0.0225
      7 C           2.5930    1.4550    0.3710 C.2     1  UNL1        0.1931
      8 C           3.8100    0.7060   -0.0290 C.ar    1  UNL1        0.0223
      9 O           2.6930    2.6390    0.6820 O.2     1  UNL1       -0.2867
     10 C           5.0280    1.0440    0.5740 C.ar    1  UNL1       -0.0495
     11 C           6.1980    0.3720    0.2130 C.ar    1  UNL1       -0.0427
     12 C           6.1490   -0.6270   -0.7590 C.ar    1  UNL1        0.0410
     13 C           4.9420   -0.9550   -1.3780 C.ar    1  UNL1       -0.0427
     14 C           3.7710   -0.2840   -1.0180 C.ar    1  UNL1       -0.0495
     15 CL          7.5890   -1.4560   -1.2050 Cl      1  UNL1       -0.0835
     16 O          -2.4720   -1.0340    0.4830 O.3     1  UNL1       -0.4750
     17 C          -3.7490   -0.5750    0.0130 C.3     1  UNL1        0.2005
     18 C          -4.6550   -1.8180    0.1810 C.2     1  UNL1        0.3511
     19 C          -3.7400   -0.2320   -1.4820 C.3     1  UNL1       -0.0145
     20 C          -4.3210    0.5280    0.9110 C.3     1  UNL1       -0.0145
     21 O          -4.2930   -2.9190    0.5790 O.2     1  UNL1       -0.2463
     22 O          -5.9400   -1.5240   -0.1880 O.3     1  UNL1       -0.4592
     23 C          -6.9040   -2.5930   -0.0970 C.3     1  UNL1        0.0976
     24 C          -8.2750   -1.9470    0.0510 C.3     1  UNL1       -0.0280
     25 C          -6.8390   -3.4420   -1.3610 C.3     1  UNL1       -0.0280
     26 H           1.9069   -1.0746    1.0995 H       1  UNL1        0.0626
     27 H          -0.3093   -2.0553    1.1064 H       1  UNL1        0.0654
     28 H          -1.9542    1.5669   -0.2193 H       1  UNL1        0.0654
     29 H           0.2596    2.5592   -0.2332 H       1  UNL1        0.0626
     30 H           5.0611    1.7904    1.2859 H       1  UNL1        0.0625
     31 H           7.0946    0.6136    0.6634 H       1  UNL1        0.0632
     32 H           4.9147   -1.6917   -2.1002 H       1  UNL1        0.0632
     33 H           2.8785   -0.5177   -1.4804 H       1  UNL1        0.0625
     34 H          -3.3274   -1.0510   -2.0334 H       1  UNL1        0.0273
     35 H          -3.1451    0.6425   -1.6437 H       1  UNL1        0.0273
     36 H          -4.7412   -0.0483   -1.8118 H       1  UNL1        0.0273
     37 H          -4.2903    0.2086    1.9318 H       1  UNL1        0.0273
     38 H          -5.3340    0.7272    0.6300 H       1  UNL1        0.0273
     39 H          -3.7379    1.4180    0.7981 H       1  UNL1        0.0273
     40 H          -6.7052   -3.2318    0.7381 H       1  UNL1        0.0728
     41 H          -8.4623   -1.3113   -0.7891 H       1  UNL1        0.0265
     42 H          -8.3009   -1.3671    0.9499 H       1  UNL1        0.0265
     43 H          -9.0252   -2.7087    0.0962 H       1  UNL1        0.0265
     44 H          -7.0346   -2.8268   -2.2143 H       1  UNL1        0.0265
     45 H          -7.5719   -4.2196   -1.3064 H       1  UNL1        0.0265
     46 H          -5.8648   -3.8756   -1.4497 H       1  UNL1        0.0265
@<TRIPOS>BOND
     1     1     2   ar
     2     1     6   ar
     3     2     3   ar
     4     3     4   ar
     5     3    16    1
     6     4     5   ar
     7     5     6   ar
     8     6     7    1
     9     7     8    1
    10     7     9    2
    11     8    10   ar
    12     8    14   ar
    13    10    11   ar
    14    11    12   ar
    15    12    13   ar
    16    12    15    1
    17    13    14   ar
    18    16    17    1
    19    17    18    1
    20    17    19    1
    21    17    20    1
    22    18    21    2
    23    18    22    1
    24    22    23    1
    25    23    24    1
    26    23    25    1
    27     1    26    1
    28     2    27    1
    29     4    28    1
    30     5    29    1
    31    10    30    1
    32    11    31    1
    33    13    32    1
    34    14    33    1
    35    19    34    1
    36    19    35    1
    37    19    36    1
    38    20    37    1
    39    20    38    1
    40    20    39    1
    41    23    40    1
    42    24    41    1
    43    24    42    1
    44    24    43    1
    45    25    44    1
    46    25    45    1
    47    25    46    1
@<TRIPOS>MOLECULE
BDB28799
 67 68 0 0 0
SMALL
GASTEIGER

@<TRIPOS>ATOM
      1 S           4.0940  -11.4060    2.3530 S.3     1  UNL1       -0.1131
      2 F           2.7590    0.5990   -1.8190 F       1  UNL1       -0.2035
      3 F          -1.5490    2.2880   -0.9590 F       1  UNL1       -0.2054
      4 O           1.3770   -3.2060    1.0140 O.2     1  UNL1       -0.2523
      5 O           5.3050  -14.3810    1.5640 O.co2   1  UNL1       -0.5484
      6 O           3.0380  -14.4840    1.7630 O.co2   1  UNL1       -0.5484
      7 N           3.6380   -3.3630    0.5860 N.am    1  UNL1       -0.2851
      8 N           2.3880   -1.5460   -0.2220 N.am    1  UNL1       -0.2668
      9 C           6.1970   -3.3190    0.7040 C.3     1  UNL1       -0.0371
     10 C           7.4180   -2.5750    0.1570 C.3     1  UNL1       -0.0516
     11 C           4.9010   -2.7800    0.0920 C.3     1  UNL1        0.0161
     12 C           8.7150   -3.1160    0.7610 C.3     1  UNL1       -0.0530
     13 C           9.9350   -2.3730    0.2150 C.3     1  UNL1       -0.0533
     14 C           3.6500   -4.7230    1.1450 C.3     1  UNL1        0.0201
     15 C           3.6500   -5.7830    0.0390 C.3     1  UNL1       -0.0118
     16 C          11.2310   -2.9140    0.8180 C.3     1  UNL1       -0.0559
     17 C           3.7580   -7.1770    0.5990 C.ar    1  UNL1       -0.0458
     18 C           2.3860   -2.7220    0.5030 C.2     1  UNL1        0.3065
     19 C          12.4470   -2.1780    0.2770 C.3     1  UNL1       -0.0653
     20 C           2.6080   -7.8810    0.9770 C.ar    1  UNL1       -0.0575
     21 C           5.0120   -7.7740    0.7780 C.ar    1  UNL1       -0.0575
     22 C           4.0100  -12.4860    0.8390 C.3     1  UNL1        0.0547
     23 C           3.9610   -9.7730    1.6560 C.ar    1  UNL1        0.0088
     24 C           2.7100   -9.1690    1.5070 C.ar    1  UNL1       -0.0480
     25 C           5.1120   -9.0620    1.3070 C.ar    1  UNL1       -0.0480
     26 C           1.3350   -0.6140   -0.3640 C.ar    1  UNL1        0.0704
     27 C           5.1780  -12.2170   -0.1120 C.3     1  UNL1       -0.0452
     28 C           2.6760  -12.3310    0.1080 C.3     1  UNL1       -0.0452
     29 C           4.1300  -13.9200    1.4540 C.2     1  UNL1        0.0575
     30 C           1.5720    0.4870   -1.2020 C.ar    1  UNL1        0.1472
     31 C           0.0970   -0.7090    0.2760 C.ar    1  UNL1       -0.0349
     32 C           0.6120    1.4700   -1.4120 C.ar    1  UNL1        0.0106
     33 C          -0.8770    0.2750    0.0710 C.ar    1  UNL1       -0.0245
     34 C          -0.6110    1.3520   -0.7700 C.ar    1  UNL1        0.1262
     35 H           3.2233   -1.3314   -0.6968 H       1  UNL1        0.1565
     36 H           6.1595   -3.1950    1.7661 H       1  UNL1        0.0280
     37 H           6.2879   -4.3540    0.4483 H       1  UNL1        0.0280
     38 H           7.3290   -1.5359    0.3962 H       1  UNL1        0.0266
     39 H           7.4537   -2.7178   -0.9028 H       1  UNL1        0.0266
     40 H           4.8672   -1.7274    0.2811 H       1  UNL1        0.0465
     41 H           4.9473   -3.0489   -0.9426 H       1  UNL1        0.0465
     42 H           8.8040   -4.1551    0.5217 H       1  UNL1        0.0265
     43 H           8.6792   -2.9731    1.8208 H       1  UNL1        0.0265
     44 H           9.8463   -1.3340    0.4547 H       1  UNL1        0.0265
     45 H           9.9706   -2.5156   -0.8449 H       1  UNL1        0.0265
     46 H           2.7809   -4.8563    1.7547 H       1  UNL1        0.0468
     47 H           4.5422   -4.8409    1.7238 H       1  UNL1        0.0468
     48 H           4.4815   -5.6055   -0.6106 H       1  UNL1        0.0328
     49 H           2.7240   -5.7091   -0.4919 H       1  UNL1        0.0328
     50 H          11.3186   -3.9532    0.5787 H       1  UNL1        0.0263
     51 H          11.1946   -2.7690    1.8775 H       1  UNL1        0.0263
     52 H          12.5017   -2.3108   -0.7833 H       1  UNL1        0.0230
     53 H          13.3327   -2.5700    0.7317 H       1  UNL1        0.0230
     54 H          12.3621   -1.1354    0.5020 H       1  UNL1        0.0230
     55 H           1.6794   -7.4453    0.8632 H       1  UNL1        0.0621
     56 H           5.8673   -7.2587    0.5173 H       1  UNL1        0.0621
     57 H           1.8574   -9.6770    1.7899 H       1  UNL1        0.0629
     58 H           6.0409   -9.4912    1.4410 H       1  UNL1        0.0629
     59 H           5.0830  -11.2343   -0.5245 H       1  UNL1        0.0247
     60 H           5.1677  -12.9381   -0.9024 H       1  UNL1        0.0247
     61 H           6.1001  -12.2905    0.4259 H       1  UNL1        0.0247
     62 H           2.6087  -11.3468   -0.3065 H       1  UNL1        0.0247
     63 H           1.8718  -12.4835    0.7972 H       1  UNL1        0.0247
     64 H           2.6140  -13.0542   -0.6782 H       1  UNL1        0.0247
     65 H          -0.0998   -1.5062    0.9011 H       1  UNL1        0.0638
     66 H           0.8057    2.2712   -2.0330 H       1  UNL1        0.0675
     67 H          -1.7918    0.2022    0.5430 H       1  UNL1        0.0647
@<TRIPOS>UNITY_ATOM_ATTR
5 1
charge -1
@<TRIPOS>BOND
     1     1    22    1
     2     1    23    1
     3     2    30    1
     4     3    34    1
     5     4    18    2
     6     5    29   ar
     7     6    29   ar
     8     7    11    1
     9     7    14    1
    10     7    18   am
    11     8    18   am
    12     8    26    1
    13     9    10    1
    14     9    11    1
    15    10    12    1
    16    12    13    1
    17    13    16    1
    18    14    15    1
    19    15    17    1
    20    16    19    1
    21    17    20   ar
    22    17    21   ar
    23    20    24   ar
    24    21    25   ar
    25    22    27    1
    26    22    28    1
    27    22    29    1
    28    23    24   ar
    29    23    25   ar
    30    26    30   ar
    31    26    31   ar
    32    30    32   ar
    33    31    33   ar
    34    32    34   ar
    35    33    34   ar
    36     8    35    1
    37     9    36    1
    38     9    37    1
    39    10    38    1
    40    10    39    1
    41    11    40    1
    42    11    41    1
    43    12    42    1
    44    12    43    1
    45    13    44    1
    46    13    45    1
    47    14    46    1
    48    14    47    1
    49    15    48    1
    50    15    49    1
    51    16    50    1
    52    16    51    1
    53    19    52    1
    54    19    53    1
    55    19    54    1
    56    20    55    1
    57    21    56    1
    58    24    57    1
    59    25    58    1
    60    27    59    1
    61    27    60    1
    62    27    61    1
    63    28    62    1
    64    28    63    1
    65    28    64    1
    66    31    65    1
    67    32    66    1
    68    33    67    1
@<TRIPOS>MOLECULE
BDB50100444
 50 52 0 0 0
SMALL
GASTEIGER

@<TRIPOS>ATOM
      1 N           0.7870   -0.5400    1.0870 N.ar    1  UNL1       -0.2136
      2 C           1.4170    0.2590    0.2470 C.ar    1  UNL1        0.2276
      3 O           1.1160    0.0330   -1.0710 O.2     1  UNL1       -0.4402
      4 C           0.0130   -1.3410    0.2780 C.ar    1  UNL1        0.0860
      5 C           0.2160   -0.9940   -1.0410 C.ar    1  UNL1        0.1258
      6 C           0.5170  -10.8140   -0.3980 C.3     1  UNL1        0.1438
      7 C           0.9190  -10.1680   -1.7620 C.2     1  UNL1        0.0845
      8 C           2.3740    1.3250    0.5310 C.ar    1  UNL1        0.0370
      9 O          -0.5930  -10.1320    0.2350 O.3     1  UNL1       -0.4805
     10 O          -0.0080  -10.0050   -2.6080 O.co2   1  UNL1       -0.5457
     11 C          -0.8570   -2.3930    0.8560 C.3     1  UNL1        0.0272
     12 C           2.7310    1.5970    1.8610 C.ar    1  UNL1       -0.0485
     13 C           2.9530    2.0950   -0.4900 C.ar    1  UNL1       -0.0485
     14 C          -0.5790   -8.7910    0.4820 C.ar    1  UNL1        0.1221
     15 O           2.1450   -9.8640   -1.8710 O.co2   1  UNL1       -0.5457
     16 C           4.2060    3.3640    1.1380 C.ar    1  UNL1        0.0179
     17 C          -0.8820   -6.0430    1.0220 C.ar    1  UNL1        0.1207
     18 C           3.6430    2.6110    2.1660 C.ar    1  UNL1       -0.0470
     19 C           3.8660    3.1110   -0.1890 C.ar    1  UNL1       -0.0470
     20 BR          5.4400    4.7370    1.5470 Br      1  UNL1       -0.0503
     21 C          -0.2260   -3.7780    0.7600 C.3     1  UNL1        0.0951
     22 C           0.4880   -7.9140    0.3080 C.ar    1  UNL1       -0.0164
     23 C          -1.7910   -8.2850    0.9620 C.ar    1  UNL1       -0.0164
     24 C           0.3400   -6.5470    0.5770 C.ar    1  UNL1       -0.0165
     25 C          -1.9420   -6.9230    1.2320 C.ar    1  UNL1       -0.0165
     26 O          -1.1540   -4.7280    1.2850 O.3     1  UNL1       -0.4916
     27 C          -0.2910   -1.4760   -2.3370 C.3     1  UNL1       -0.0045
     28 C           1.6440  -11.0490    0.6110 C.3     1  UNL1       -0.0198
     29 C          -0.0410  -12.1910   -0.8020 C.3     1  UNL1       -0.0198
     30 H          -1.7870   -2.4004    0.3269 H       1  UNL1        0.0362
     31 H          -1.0008   -2.1682    1.8922 H       1  UNL1        0.0362
     32 H           2.3144    1.0407    2.6239 H       1  UNL1        0.0625
     33 H           2.7022    1.9094   -1.4737 H       1  UNL1        0.0625
     34 H           3.8981    2.8010    3.1477 H       1  UNL1        0.0629
     35 H           4.2862    3.6711   -0.9471 H       1  UNL1        0.0629
     36 H           0.6798   -3.8037    1.3291 H       1  UNL1        0.0700
     37 H           0.0039   -4.0098   -0.2590 H       1  UNL1        0.0700
     38 H           1.3969   -8.2743   -0.0224 H       1  UNL1        0.0655
     39 H          -2.5842   -8.9263    1.1188 H       1  UNL1        0.0655
     40 H           1.1403   -5.9089    0.4450 H       1  UNL1        0.0655
     41 H          -2.8425   -6.5667    1.5886 H       1  UNL1        0.0655
     42 H           0.1456   -0.9012   -3.1269 H       1  UNL1        0.0308
     43 H          -1.3554   -1.3703   -2.3652 H       1  UNL1        0.0308
     44 H          -0.0316   -2.5067   -2.4605 H       1  UNL1        0.0308
     45 H           2.0545  -10.1081    0.9128 H       1  UNL1        0.0272
     46 H           2.4098  -11.6435    0.1583 H       1  UNL1        0.0272
     47 H           1.2554  -11.5597    1.4672 H       1  UNL1        0.0272
     48 H          -0.8334  -12.0612   -1.5092 H       1  UNL1        0.0272
     49 H          -0.4159  -12.6925    0.0657 H       1  UNL1        0.0272
     50 H           0.7385  -12.7762   -1.2433 H       1  UNL1        0.0272
@<TRIPOS>UNITY_ATOM_ATTR
15 1
charge -1
@<TRIPOS>BOND
     1     1     2   ar
     2     1     4   ar
     3     2     3   ar
     4     2     8    1
     5     3     5   ar
     6     4     5   ar
     7     4    11    1
     8     5    27    1
     9     6     7    1
    10     6     9    1
    11     6    28    1
    12     6    29    1
    13     7    10   ar
    14     7    15   ar
    15     8    12   ar
    16     8    13   ar
    17     9    14    1
    18    11    21    1
    19    12    18   ar
    20    13    19   ar
    21    14    22   ar
    22    14    23   ar
    23    16    18   ar
    24    16    19   ar
    25    16    20    1
    26    17    24   ar
    27    17    25   ar
    28    17    26    1
    29    21    26    1
    30    22    24   ar
    31    23    25   ar
    32    11    30    1
    33    11    31    1
    34    12    32    1
    35    13    33    1
    36    18    34    1
    37    19    35    1
    38    21    36    1
    39    21    37    1
    40    22    38    1
    41    23    39    1
    42    24    40    1
    43    25    41    1
    44    27    42    1
    45    27    43    1
    46    27    44    1
    47    28    45    1
    48    28    46    1
    49    28    47    1
    50    29    48    1
    51    29    49    1
    52    29    50    1
@<TRIPOS>MOLECULE
BDB28661
 47 49 0 0 0
SMALL
GASTEIGER

@<TRIPOS>ATOM
      1 C           1.0870   -0.5290   -1.1280 C.ar    1  UNL1       -0.0186
      2 C           1.2050    0.7880   -0.6740 C.ar    1  UNL1        0.1240
      3 C           0.0520    1.5840   -0.5520 C.ar    1  UNL1       -0.0077
      4 C          -1.2040    1.0370   -0.8630 C.ar    1  UNL1       -0.0419
      5 C          -1.3200   -0.2880   -1.2900 C.ar    1  UNL1        0.0087
      6 C          -0.1690   -1.0640   -1.4350 C.ar    1  UNL1       -0.0448
      7 O           2.3870    1.3960   -0.3390 O.3     1  UNL1       -0.4859
      8 C           3.5470    0.5630   -0.2190 C.3     1  UNL1        0.1287
      9 C           4.6860    1.3940    0.3950 C.2     1  UNL1        0.0789
     10 O           5.5780    1.7750   -0.4180 O.co2   1  UNL1       -0.5463
     11 O           4.6150    1.5670    1.6460 O.co2   1  UNL1       -0.5463
     12 C           0.1500    3.0080   -0.0800 C.3     1  UNL1       -0.0362
     13 S          -2.9200   -0.9890   -1.6530 S.3     1  UNL1       -0.1199
     14 C          -3.5380   -1.1490    0.0560 C.3     1  UNL1        0.0314
     15 C          -4.9460   -1.6490    0.0590 C.ar    1  UNL1        0.0228
     16 S          -5.2900   -3.3190    0.2240 S.2     1  UNL1       -0.0711
     17 C          -6.1320   -0.9420   -0.0430 C.ar    1  UNL1        0.0500
     18 N          -7.2770   -1.7180    0.0060 N.ar    1  UNL1       -0.2439
     19 C          -6.9810   -2.9980    0.1360 C.ar    1  UNL1        0.1088
     20 C          -6.2820    0.5290   -0.1980 C.3     1  UNL1       -0.0215
     21 C          -7.9950   -4.0720    0.2170 C.ar    1  UNL1        0.0072
     22 C          -7.6790   -5.4400    0.2250 C.ar    1  UNL1       -0.0515
     23 C          -9.3540   -3.7190    0.2840 C.ar    1  UNL1       -0.0515
     24 C         -10.3590   -4.6900    0.3620 C.ar    1  UNL1       -0.0495
     25 C         -10.0330   -6.0510    0.3810 C.ar    1  UNL1        0.0548
     26 C          -8.6830   -6.4160    0.3020 C.ar    1  UNL1       -0.0495
     27 C         -11.1120   -7.1010    0.4410 C.3     1  UNL1        0.4174
     28 F         -12.2240   -6.6870    1.1110 F       1  UNL1       -0.1659
     29 F         -11.5390   -7.4750   -0.7960 F       1  UNL1       -0.1659
     30 F         -10.7110   -8.2460    1.0610 F       1  UNL1       -0.1659
     31 H           1.9323   -1.1108   -1.2375 H       1  UNL1        0.0654
     32 H          -2.0506    1.6206   -0.7750 H       1  UNL1        0.0632
     33 H          -0.2446   -2.0371   -1.7703 H       1  UNL1        0.0630
     34 H           3.8390    0.2101   -1.1860 H       1  UNL1        0.0760
     35 H           3.3301   -0.2781    0.4058 H       1  UNL1        0.0760
     36 H           1.1748    3.2517    0.1081 H       1  UNL1        0.0279
     37 H          -0.4155    3.1249    0.8208 H       1  UNL1        0.0279
     38 H          -0.2395    3.6609   -0.8329 H       1  UNL1        0.0279
     39 H          -3.5031   -0.1923    0.5340 H       1  UNL1        0.0434
     40 H          -2.9218   -1.8474    0.5827 H       1  UNL1        0.0434
     41 H          -5.3147    0.9859   -0.2190 H       1  UNL1        0.0293
     42 H          -6.8429    0.9191    0.6255 H       1  UNL1        0.0293
     43 H          -6.7964    0.7407   -1.1121 H       1  UNL1        0.0293
     44 H          -6.6906   -5.7323    0.1733 H       1  UNL1        0.0624
     45 H          -9.6167   -2.7210    0.2755 H       1  UNL1        0.0624
     46 H         -11.3485   -4.4001    0.4059 H       1  UNL1        0.0623
     47 H          -8.4242   -7.4150    0.3004 H       1  UNL1        0.0623
@<TRIPOS>UNITY_ATOM_ATTR
10 1
charge -1
@<TRIPOS>BOND
     1     1     2   ar
     2     1     6   ar
     3     2     3   ar
     4     2     7    1
     5     3     4   ar
     6     3    12    1
     7     4     5   ar
     8     5     6   ar
     9     5    13    1
    10     7     8    1
    11     8     9    1
    12     9    10   ar
    13     9    11   ar
    14    13    14    1
    15    14    15    1
    16    15    16   ar
    17    15    17   ar
    18    16    19   ar
    19    17    18   ar
    20    17    20    1
    21    18    19   ar
    22    19    21    1
    23    21    22   ar
    24    21    23   ar
    25    22    26   ar
    26    23    24   ar
    27    24    25   ar
    28    25    26   ar
    29    25    27    1
    30    27    28    1
    31    27    29    1
    32    27    30    1
    33     1    31    1
    34     4    32    1
    35     6    33    1
    36     8    34    1
    37     8    35    1
    38    12    36    1
    39    12    37    1
    40    12    38    1
    41    14    39    1
    42    14    40    1
    43    20    41    1
    44    20    42    1
    45    20    43    1
    46    22    44    1
    47    23    45    1
    48    24    46    1
    49    26    47    1
@<TRIPOS>MOLECULE
BDB50145719
 66 69 0 0 0
SMALL
GASTEIGER

@<TRIPOS>ATOM
      1 N           0.5440   -0.6970   -0.9450 N.ar    1  UNL1       -0.2177
      2 C           0.9010    0.5380   -0.6580 C.ar    1  UNL1        0.1990
      3 O          -0.0320    1.2510    0.0420 O.2     1  UNL1       -0.4444
      4 C          -0.7140   -0.8130   -0.4010 C.ar    1  UNL1        0.0856
      5 C          -1.0670    0.3740    0.2060 C.ar    1  UNL1        0.1255
      6 C           0.7160  -10.4200    1.0940 C.3     1  UNL1        0.1505
      7 C           1.1420  -11.6130    2.0110 C.2     1  UNL1        0.0851
      8 O          -0.3820  -10.7880    0.2240 O.3     1  UNL1       -0.4799
      9 C           0.1300   -9.4290    2.1440 C.3     1  UNL1        0.0175
     10 C           2.1700    1.2490   -0.9890 C.3     1  UNL1        0.0355
     11 O           2.3870  -11.8480    2.0480 O.co2   1  UNL1       -0.5457
     12 C          -1.4710   -2.0830   -0.5100 C.3     1  UNL1        0.0272
     13 C          -0.2950   -8.0750    1.6050 C.ar    1  UNL1       -0.0430
     14 O           0.2130  -12.2130    2.6260 O.co2   1  UNL1       -0.5457
     15 C          -0.2440  -11.6900   -0.7900 C.ar    1  UNL1        0.1219
     16 C          -1.0840   -5.5580    0.6080 C.ar    1  UNL1        0.1205
     17 C          -0.7580   -3.2360    0.1900 C.3     1  UNL1        0.0951
     18 C           0.5130   -6.9470    1.7920 C.ar    1  UNL1       -0.0550
     19 C          -1.5030   -7.9290    0.9140 C.ar    1  UNL1       -0.0550
     20 C           0.1230   -5.6960    1.2970 C.ar    1  UNL1       -0.0197
     21 C          -1.8930   -6.6810    0.4220 C.ar    1  UNL1       -0.0197
     22 O          -1.5820   -4.3970    0.0790 O.3     1  UNL1       -0.4916
     23 C           1.8570   -9.7560    0.3130 C.3     1  UNL1       -0.0192
     24 C          -2.2490    0.8560    0.9380 C.3     1  UNL1       -0.0045
     25 C           2.3570    1.3430   -2.5100 C.3     1  UNL1       -0.0418
     26 C           3.3690    0.5510   -0.3310 C.3     1  UNL1       -0.0418
     27 C          -1.3090  -11.6940   -1.6970 C.ar    1  UNL1       -0.0199
     28 C           0.8070  -12.5840   -0.9820 C.ar    1  UNL1       -0.0199
     29 C           4.6860    1.2310   -0.6980 C.3     1  UNL1       -0.0524
     30 C           3.6770    2.0210   -2.8730 C.3     1  UNL1       -0.0524
     31 C           0.8000  -13.4580   -2.0750 C.ar    1  UNL1       -0.0583
     32 C          -1.3190  -12.5630   -2.7900 C.ar    1  UNL1       -0.0583
     33 C          -0.2600  -13.4460   -2.9800 C.ar    1  UNL1       -0.0615
     34 C           4.8650    1.3310   -2.2100 C.3     1  UNL1       -0.0530
     35 H           0.8758   -9.2652    2.8936 H       1  UNL1        0.0356
     36 H          -0.7625   -9.8893    2.5135 H       1  UNL1        0.0356
     37 H           2.1105    2.2440   -0.5999 H       1  UNL1        0.0395
     38 H          -1.5886   -2.3272   -1.5451 H       1  UNL1        0.0362
     39 H          -2.4195   -1.9439   -0.0346 H       1  UNL1        0.0362
     40 H          -0.6058   -2.9961    1.2216 H       1  UNL1        0.0700
     41 H           0.1957   -3.4125   -0.2620 H       1  UNL1        0.0700
     42 H           1.4064   -7.0383    2.3005 H       1  UNL1        0.0621
     43 H          -2.1108   -8.7499    0.7666 H       1  UNL1        0.0621
     44 H           0.7295   -4.8737    1.4419 H       1  UNL1        0.0654
     45 H          -2.7877   -6.5881   -0.0839 H       1  UNL1        0.0654
     46 H           2.2488  -10.4477   -0.4032 H       1  UNL1        0.0272
     47 H           2.6326   -9.4672    0.9912 H       1  UNL1        0.0272
     48 H           1.4856   -8.8899   -0.1938 H       1  UNL1        0.0272
     49 H          -2.0914    1.8698    1.2418 H       1  UNL1        0.0308
     50 H          -2.4070    0.2451    1.8022 H       1  UNL1        0.0308
     51 H          -3.1081    0.8036    0.3023 H       1  UNL1        0.0308
     52 H           1.5498    1.9098   -2.9248 H       1  UNL1        0.0273
     53 H           2.3702    0.3498   -2.9078 H       1  UNL1        0.0273
     54 H           3.4008   -0.4671   -0.6586 H       1  UNL1        0.0273
     55 H           3.2478    0.6072    0.7306 H       1  UNL1        0.0273
     56 H          -2.0990  -11.0451   -1.5563 H       1  UNL1        0.0654
     57 H           1.5944  -12.6019   -0.3151 H       1  UNL1        0.0654
     58 H           5.4956    0.6630   -0.2894 H       1  UNL1        0.0265
     59 H           4.6736    2.2227   -0.2964 H       1  UNL1        0.0265
     60 H           3.6436    3.0407   -2.5504 H       1  UNL1        0.0265
     61 H           3.8039    1.9591   -3.9336 H       1  UNL1        0.0265
     62 H           1.5840  -14.1150   -2.2117 H       1  UNL1        0.0619
     63 H          -2.1086  -12.5506   -3.4544 H       1  UNL1        0.0619
     64 H          -0.2596  -14.0889   -3.7873 H       1  UNL1        0.0618
     65 H           4.9632    0.3450   -2.6138 H       1  UNL1        0.0265
     66 H           5.7411    1.9135   -2.4049 H       1  UNL1        0.0265
@<TRIPOS>UNITY_ATOM_ATTR
14 1
charge -1
@<TRIPOS>BOND
     1     1     2   ar
     2     1     4   ar
     3     2     3   ar
     4     2    10    1
     5     3     5   ar
     6     4     5   ar
     7     4    12    1
     8     5    24    1
     9     6     7    1
    10     6     8    1
    11     6     9    1
    12     6    23    1
    13     7    11   ar
    14     7    14   ar
    15     8    15    1
    16     9    13    1
    17    10    25    1
    18    10    26    1
    19    12    17    1
    20    13    18   ar
    21    13    19   ar
    22    15    27   ar
    23    15    28   ar
    24    16    20   ar
    25    16    21   ar
    26    16    22    1
    27    17    22    1
    28    18    20   ar
    29    19    21   ar
    30    25    30    1
    31    26    29    1
    32    27    32   ar
    33    28    31   ar
    34    29    34    1
    35    30    34    1
    36    31    33   ar
    37    32    33   ar
    38     9    35    1
    39     9    36    1
    40    10    37    1
    41    12    38    1
    42    12    39    1
    43    17    40    1
    44    17    41    1
    45    18    42    1
    46    19    43    1
    47    20    44    1
    48    21    45    1
    49    23    46    1
    50    23    47    1
    51    23    48    1
    52    24    49    1
    53    24    50    1
    54    24    51    1
    55    25    52    1
    56    25    53    1
    57    26    54    1
    58    26    55    1
    59    27    56    1
    60    28    57    1
    61    29    58    1
    62    29    59    1
    63    30    60    1
    64    30    61    1
    65    31    62    1
    66    32    63    1
    67    33    64    1
    68    34    65    1
    69    34    66    1
@<TRIPOS>MOLECULE
BDB50135773
 62 64 0 0 0
SMALL
GASTEIGER

@<TRIPOS>ATOM
      1 N          -0.0780   -0.5880   -0.2430 N.ar    1  UNL1       -0.2824
      2 C           0.1520    0.4660    0.6100 C.ar    1  UNL1        0.3468
      3 N          -1.0950    0.7650    1.1590 N.ar    1  UNL1       -0.2085
      4 N          -2.0540   -0.0800    0.6600 N.ar    1  UNL1       -0.1534
      5 C          -1.4000   -0.8490   -0.1630 C.ar    1  UNL1        0.1339
      6 C         -10.3070   -2.7050    0.2380 C.3     1  UNL1        0.1438
      7 C         -11.6880   -2.1340   -0.2530 C.2     1  UNL1        0.0845
      8 C          -1.3920    1.8110    2.1070 C.3     1  UNL1        0.0718
      9 O           1.2150    1.0230    0.8400 O.2     1  UNL1       -0.2448
     10 O          -9.7350   -3.3880   -0.9060 O.3     1  UNL1       -0.4805
     11 C          -3.6640    4.3720    0.3980 C.ar    1  UNL1       -0.0472
     12 C          -1.8640    3.0720    1.4270 C.ar    1  UNL1       -0.0257
     13 C          -3.2060    3.2120    1.0460 C.ar    1  UNL1       -0.0536
     14 C          -2.7550    5.4130    0.1240 C.ar    1  UNL1       -0.0475
     15 O         -12.7200   -2.7680    0.1160 O.co2   1  UNL1       -0.5457
     16 C           0.9290   -1.2480   -1.0440 C.3     1  UNL1        0.0178
     17 C          -1.4090    5.2610    0.4920 C.ar    1  UNL1       -0.0583
     18 C          -8.3820   -3.3260   -1.0500 C.ar    1  UNL1        0.1218
     19 C          -2.0200   -1.9510   -0.9770 C.3     1  UNL1        0.0078
     20 O         -11.6240   -1.0930   -0.9740 O.co2   1  UNL1       -0.5457
     21 C          -0.9660    4.1030    1.1330 C.ar    1  UNL1       -0.0566
     22 C          -5.6240   -3.2310   -1.4820 C.ar    1  UNL1       -0.0471
     23 C          -7.8590   -2.4460   -1.9950 C.ar    1  UNL1       -0.0196
     24 C          -7.5440   -4.1860   -0.3460 C.ar    1  UNL1       -0.0196
     25 C          -6.4820   -2.3900   -2.2040 C.ar    1  UNL1       -0.0551
     26 C          -6.1650   -4.1290   -0.5520 C.ar    1  UNL1       -0.0551
     27 C          -9.5170   -1.4970    0.7720 C.3     1  UNL1       -0.0198
     28 C         -10.5230   -3.7240    1.3620 C.3     1  UNL1       -0.0198
     29 C          -3.5310   -2.0400   -0.7990 C.3     1  UNL1       -0.0422
     30 C          -5.1140    4.4730    0.0100 C.3     1  UNL1       -0.0395
     31 C          -3.1920    6.6760   -0.5650 C.3     1  UNL1       -0.0395
     32 C          -4.1320   -3.1390   -1.6750 C.3     1  UNL1       -0.0273
     33 H          -0.5073    2.0309    2.6673 H       1  UNL1        0.0560
     34 H          -2.1782    1.4654    2.7453 H       1  UNL1        0.0560
     35 H          -3.8707    2.4481    1.2453 H       1  UNL1        0.0624
     36 H           1.8803   -0.7904   -0.8691 H       1  UNL1        0.0458
     37 H           0.6755   -1.1592   -2.0797 H       1  UNL1        0.0458
     38 H           0.9763   -2.2828   -0.7759 H       1  UNL1        0.0458
     39 H          -0.7371    6.0166    0.2856 H       1  UNL1        0.0620
     40 H          -1.5854   -2.8821   -0.6786 H       1  UNL1        0.0344
     41 H          -1.8297   -1.7356   -2.0077 H       1  UNL1        0.0344
     42 H           0.0286    4.0072    1.3911 H       1  UNL1        0.0621
     43 H          -8.4898   -1.8369   -2.5391 H       1  UNL1        0.0654
     44 H          -7.9406   -4.8624    0.3250 H       1  UNL1        0.0654
     45 H          -6.0929   -1.7271   -2.8926 H       1  UNL1        0.0621
     46 H          -5.5400   -4.7516   -0.0165 H       1  UNL1        0.0621
     47 H          -9.3698   -0.7899   -0.0174 H       1  UNL1        0.0272
     48 H          -8.5668   -1.8258    1.1381 H       1  UNL1        0.0272
     49 H         -10.0651   -1.0355    1.5667 H       1  UNL1        0.0272
     50 H         -11.0725   -4.5607    0.9841 H       1  UNL1        0.0272
     51 H         -11.0728   -3.2662    2.1577 H       1  UNL1        0.0272
     52 H          -9.5745   -4.0565    1.7291 H       1  UNL1        0.0272
     53 H          -3.9691   -1.1017   -1.0682 H       1  UNL1        0.0272
     54 H          -3.7362   -2.2752    0.2245 H       1  UNL1        0.0272
     55 H          -5.6257    3.5816    0.3073 H       1  UNL1        0.0278
     56 H          -5.1920    4.5922   -1.0505 H       1  UNL1        0.0278
     57 H          -5.5556    5.3171    0.4972 H       1  UNL1        0.0278
     58 H          -4.2405    6.6248   -0.7721 H       1  UNL1        0.0278
     59 H          -2.6523    6.7870   -1.4822 H       1  UNL1        0.0278
     60 H          -2.9942    7.5149    0.0690 H       1  UNL1        0.0278
     61 H          -3.9252   -2.9199   -2.7017 H       1  UNL1        0.0313
     62 H          -3.6946   -4.0745   -1.3948 H       1  UNL1        0.0313
@<TRIPOS>UNITY_ATOM_ATTR
20 1
charge -1
@<TRIPOS>BOND
     1     1     2   ar
     2     1     5   ar
     3     1    16    1
     4     2     3   ar
     5     2     9    2
     6     3     4   ar
     7     3     8    1
     8     4     5   ar
     9     5    19    1
    10     6     7    1
    11     6    10    1
    12     6    27    1
    13     6    28    1
    14     7    15   ar
    15     7    20   ar
    16     8    12    1
    17    10    18    1
    18    11    13   ar
    19    11    14   ar
    20    11    30    1
    21    12    13   ar
    22    12    21   ar
    23    14    17   ar
    24    14    31    1
    25    17    21   ar
    26    18    23   ar
    27    18    24   ar
    28    19    29    1
    29    22    25   ar
    30    22    26   ar
    31    22    32    1
    32    23    25   ar
    33    24    26   ar
    34    29    32    1
    35     8    33    1
    36     8    34    1
    37    13    35    1
    38    16    36    1
    39    16    37    1
    40    16    38    1
    41    17    39    1
    42    19    40    1
    43    19    41    1
    44    21    42    1
    45    23    43    1
    46    24    44    1
    47    25    45    1
    48    26    46    1
    49    27    47    1
    50    27    48    1
    51    27    49    1
    52    28    50    1
    53    28    51    1
    54    28    52    1
    55    29    53    1
    56    29    54    1
    57    30    55    1
    58    30    56    1
    59    30    57    1
    60    31    58    1
    61    31    59    1
    62    31    60    1
    63    32    61    1
    64    32    62    1
@<TRIPOS>MOLECULE
BDB50135780
 56 58 0 0 0
SMALL
GASTEIGER

@<TRIPOS>ATOM
      1 C          -0.1850    2.1020   -1.6340 C.ar    1  UNL1        0.3144
      2 N           0.2970    1.4750   -0.5200 N.ar    1  UNL1       -0.2105
      3 N          -1.4570    2.3730   -1.4880 N.ar    1  UNL1       -0.1787
      4 N          -0.6700    1.3690    0.4160 N.ar    1  UNL1       -0.1517
      5 C          -1.7160    1.9150   -0.2220 C.ar    1  UNL1        0.1547
      6 C          -9.4420   -4.1540   -0.5130 C.3     1  UNL1        0.1438
      7 C          -9.9020   -5.6000   -0.0610 C.2     1  UNL1        0.0845
      8 C           1.6200    0.9350   -0.2650 C.3     1  UNL1        0.0717
      9 O          -8.3900   -3.8070    0.4040 O.3     1  UNL1       -0.4805
     10 O           0.4680    2.4230   -2.7380 O.3     1  UNL1       -0.4786
     11 O         -10.8180   -5.6450    0.8150 O.co2   1  UNL1       -0.5457
     12 C          -7.7030   -2.6340    0.4090 C.ar    1  UNL1        0.1218
     13 C           2.6840    2.0020   -0.2560 C.ar    1  UNL1       -0.0259
     14 O          -9.2990   -6.5730   -0.6050 O.co2   1  UNL1       -0.5457
     15 C          -6.1110   -0.3220    0.7200 C.ar    1  UNL1       -0.0471
     16 C           4.6970    3.9780   -0.2310 C.ar    1  UNL1       -0.0504
     17 C          -3.0570    2.0320    0.4020 C.3     1  UNL1        0.0095
     18 C          -6.7460   -2.5490    1.4270 C.ar    1  UNL1       -0.0196
     19 C          -7.8480   -1.5570   -0.4570 C.ar    1  UNL1       -0.0196
     20 C           3.7980    1.8960   -1.1000 C.ar    1  UNL1       -0.0566
     21 C           2.5950    3.1020    0.6090 C.ar    1  UNL1       -0.0566
     22 C           3.5870    4.0850    0.6130 C.ar    1  UNL1       -0.0585
     23 C           4.7900    2.8810   -1.0940 C.ar    1  UNL1       -0.0585
     24 C          -5.9550   -1.4090    1.5840 C.ar    1  UNL1       -0.0551
     25 C          -7.0590   -0.4090   -0.3050 C.ar    1  UNL1       -0.0551
     26 C          -8.9500   -4.2770   -1.9600 C.3     1  UNL1       -0.0198
     27 C         -10.6680   -3.2430   -0.3880 C.3     1  UNL1       -0.0198
     28 C          -3.8980    0.7690    0.2110 C.3     1  UNL1       -0.0421
     29 C          -5.2650    0.9140    0.8830 C.3     1  UNL1       -0.0273
     30 C           5.7450    5.0510   -0.2490 C.3     1  UNL1       -0.0397
     31 H           1.8537    0.2231   -1.0289 H       1  UNL1        0.0560
     32 H           1.6057    0.4803    0.7035 H       1  UNL1        0.0560
     33 H           1.3788    2.2188   -2.8198 H       1  UNL1        0.2953
     34 H          -3.5719    2.8586   -0.0413 H       1  UNL1        0.0344
     35 H          -2.9176    2.1767    1.4530 H       1  UNL1        0.0344
     36 H          -6.6227   -3.3438    2.0736 H       1  UNL1        0.0654
     37 H          -8.5428   -1.6030   -1.2187 H       1  UNL1        0.0654
     38 H           3.8866    1.0842   -1.7310 H       1  UNL1        0.0621
     39 H           1.7893    3.1859    1.2484 H       1  UNL1        0.0621
     40 H           3.5002    4.8970    1.2439 H       1  UNL1        0.0620
     41 H           5.5974    2.7982   -1.7314 H       1  UNL1        0.0620
     42 H          -5.2536   -1.3692    2.3399 H       1  UNL1        0.0621
     43 H          -7.1787    0.3819   -0.9571 H       1  UNL1        0.0621
     44 H          -8.0961   -4.9209   -1.9929 H       1  UNL1        0.0272
     45 H          -8.6813   -3.3092   -2.3288 H       1  UNL1        0.0272
     46 H          -9.7293   -4.6867   -2.5681 H       1  UNL1        0.0272
     47 H         -10.9706   -3.1908    0.6370 H       1  UNL1        0.0272
     48 H         -11.4687   -3.6398   -0.9765 H       1  UNL1        0.0272
     49 H         -10.4207   -2.2623   -0.7372 H       1  UNL1        0.0272
     50 H          -3.3824   -0.0633    0.6426 H       1  UNL1        0.0272
     51 H          -4.0479    0.6144   -0.8371 H       1  UNL1        0.0272
     52 H          -5.1185    1.0965    1.9271 H       1  UNL1        0.0313
     53 H          -5.7776    1.7281    0.4146 H       1  UNL1        0.0313
     54 H           5.5017    5.7994    0.4759 H       1  UNL1        0.0278
     55 H           5.7836    5.4956   -1.2215 H       1  UNL1        0.0278
     56 H           6.6973    4.6234   -0.0143 H       1  UNL1        0.0278
@<TRIPOS>UNITY_ATOM_ATTR
14 1
charge -1
@<TRIPOS>BOND
     1     1     2   ar
     2     1     3   ar
     3     1    10    1
     4     2     4   ar
     5     2     8    1
     6     3     5   ar
     7     4     5   ar
     8     5    17    1
     9     6     7    1
    10     6     9    1
    11     6    26    1
    12     6    27    1
    13     7    11   ar
    14     7    14   ar
    15     8    13    1
    16     9    12    1
    17    12    18   ar
    18    12    19   ar
    19    13    20   ar
    20    13    21   ar
    21    15    24   ar
    22    15    25   ar
    23    15    29    1
    24    16    22   ar
    25    16    23   ar
    26    16    30    1
    27    17    28    1
    28    18    24   ar
    29    19    25   ar
    30    20    23   ar
    31    21    22   ar
    32    28    29    1
    33     8    31    1
    34     8    32    1
    35    10    33    1
    36    17    34    1
    37    17    35    1
    38    18    36    1
    39    19    37    1
    40    20    38    1
    41    21    39    1
    42    22    40    1
    43    23    41    1
    44    24    42    1
    45    25    43    1
    46    26    44    1
    47    26    45    1
    48    26    46    1
    49    27    47    1
    50    27    48    1
    51    27    49    1
    52    28    50    1
    53    28    51    1
    54    29    52    1
    55    29    53    1
    56    30    54    1
    57    30    55    1
    58    30    56    1
@<TRIPOS>MOLECULE
BDB50179828
 58 60 0 0 0
SMALL
GASTEIGER

@<TRIPOS>ATOM
      1 C           6.5920    9.5260   -0.4740 C.ar    1  UNL1       -0.0463
      2 C           7.7210    8.6960   -0.4950 C.ar    1  UNL1       -0.0551
      3 C           7.5840    7.3060   -0.4490 C.ar    1  UNL1       -0.0197
      4 C           6.3190    6.7170   -0.3900 C.ar    1  UNL1        0.1205
      5 C           5.1900    7.5350   -0.3840 C.ar    1  UNL1       -0.0197
      6 C           5.3280    8.9270   -0.4310 C.ar    1  UNL1       -0.0551
      7 O           6.3230    5.3490   -0.3480 O.3     1  UNL1       -0.4918
      8 C           5.0520    4.7040   -0.2670 C.3     1  UNL1        0.0927
      9 C           5.2930    3.2010   -0.2160 C.3     1  UNL1        0.0157
     10 C           3.9870    2.4210   -0.1290 C.3     1  UNL1        0.0927
     11 O           4.3130    1.0320   -0.0860 O.3     1  UNL1       -0.4903
     12 C           3.2840    0.1330   -0.0060 C.ar    1  UNL1        0.1423
     13 C           1.9320    0.4730    0.0380 C.ar    1  UNL1        0.0246
     14 C           2.6530   -2.2260    0.1150 C.ar    1  UNL1       -0.0286
     15 C           3.6340   -1.2260    0.0330 C.ar    1  UNL1        0.0833
     16 C           6.7500   11.0280   -0.5440 C.3     1  UNL1       -0.0172
     17 C           6.3370   11.8840    0.6820 C.3     1  UNL1        0.0110
     18 C           4.8000   12.0460    0.8690 C.2     1  UNL1        0.0479
     19 O           4.4110   12.2980    2.0460 O.co2   1  UNL1       -0.5492
     20 O           4.1030   11.9380   -0.1810 O.co2   1  UNL1       -0.5492
     21 C           6.7000   13.3550    0.3330 C.3     1  UNL1       -0.0541
     22 C           7.1010   11.5320    1.9830 C.3     1  UNL1       -0.0451
     23 C           6.7250   10.2260    2.6730 C.3     1  UNL1       -0.0644
     24 C           1.2940   -1.8930    0.1600 C.ar    1  UNL1        0.0308
     25 C           0.9670   -0.5370    0.1200 C.ar    1  UNL1        0.1431
     26 O          -0.3750   -0.1060    0.1600 O.2     1  UNL1       -0.4220
     27 C          -1.4210   -1.0080    0.2410 C.ar    1  UNL1        0.3378
     28 C          -1.0590   -2.4330    0.2820 C.ar    1  UNL1        0.0352
     29 C           0.2070   -2.8790    0.2460 C.ar    1  UNL1        0.0722
     30 O          -2.5930   -0.6540    0.2770 O.2     1  UNL1       -0.2452
     31 C           0.5230   -4.3440    0.2910 C.3     1  UNL1        0.4183
     32 F           1.1970   -4.7520   -0.8140 F       1  UNL1       -0.1659
     33 F          -0.5920   -5.1160    0.3700 F       1  UNL1       -0.1659
     34 F           1.2900   -4.6640    1.3650 F       1  UNL1       -0.1659
     35 CL          5.2910   -1.7250   -0.0170 Cl      1  UNL1       -0.0797
     36 H           8.6627    9.1153   -0.5449 H       1  UNL1        0.0621
     37 H           8.4257    6.7090   -0.4587 H       1  UNL1        0.0654
     38 H           4.2492    7.1126   -0.3448 H       1  UNL1        0.0654
     39 H           4.4842    9.5211   -0.4340 H       1  UNL1        0.0621
     40 H           4.4643    4.9491   -1.1269 H       1  UNL1        0.0697
     41 H           4.5247    5.0271    0.6062 H       1  UNL1        0.0697
     42 H           5.8893    2.9748    0.6431 H       1  UNL1        0.0331
     43 H           5.7926    2.9136   -1.1175 H       1  UNL1        0.0331
     44 H           3.3818    2.6269   -0.9870 H       1  UNL1        0.0697
     45 H           3.4388    2.7045    0.7451 H       1  UNL1        0.0697
     46 H           1.6450    1.4639    0.0102 H       1  UNL1        0.0692
     47 H           2.9365   -3.2179    0.1424 H       1  UNL1        0.0640
     48 H           6.1661   11.3666   -1.3742 H       1  UNL1        0.0322
     49 H           7.8079   11.1725   -0.6141 H       1  UNL1        0.0322
     50 H           6.1928   13.6444   -0.5636 H       1  UNL1        0.0239
     51 H           7.7569   13.4366    0.1871 H       1  UNL1        0.0239
     52 H           6.4001   13.9963    1.1353 H       1  UNL1        0.0239
     53 H           6.9336   12.3258    2.6807 H       1  UNL1        0.0271
     54 H           8.1198   11.4045    1.6818 H       1  UNL1        0.0271
     55 H           5.7093   10.2779    3.0055 H       1  UNL1        0.0230
     56 H           7.3680   10.0688    3.5137 H       1  UNL1        0.0230
     57 H           6.8338    9.4145    1.9841 H       1  UNL1        0.0230
     58 H          -1.8195   -3.1280    0.3417 H       1  UNL1        0.0695
@<TRIPOS>UNITY_ATOM_ATTR
19 1
charge -1
@<TRIPOS>BOND
     1     1     2   ar
     2     1     6   ar
     3     1    16    1
     4     2     3   ar
     5     3     4   ar
     6     4     5   ar
     7     4     7    1
     8     5     6   ar
     9     7     8    1
    10     8     9    1
    11     9    10    1
    12    10    11    1
    13    11    12    1
    14    12    13   ar
    15    12    15   ar
    16    13    25   ar
    17    14    15   ar
    18    14    24   ar
    19    15    35    1
    20    16    17    1
    21    17    18    1
    22    17    21    1
    23    17    22    1
    24    18    19   ar
    25    18    20   ar
    26    22    23    1
    27    24    25   ar
    28    24    29   ar
    29    25    26   ar
    30    26    27   ar
    31    27    28   ar
    32    27    30    2
    33    28    29   ar
    34    29    31    1
    35    31    32    1
    36    31    33    1
    37    31    34    1
    38     2    36    1
    39     3    37    1
    40     5    38    1
    41     6    39    1
    42     8    40    1
    43     8    41    1
    44     9    42    1
    45     9    43    1
    46    10    44    1
    47    10    45    1
    48    13    46    1
    49    14    47    1
    50    16    48    1
    51    16    49    1
    52    21    50    1
    53    21    51    1
    54    21    52    1
    55    22    53    1
    56    22    54    1
    57    23    55    1
    58    23    56    1
    59    23    57    1
    60    28    58    1
@<TRIPOS>MOLECULE
BDB50179840
 56 57 0 0 0
SMALL
GASTEIGER

@<TRIPOS>ATOM
      1 C          10.5130    0.8670    0.0180 C.ar    1  UNL1       -0.0463
      2 C           9.4090    1.7140   -0.1370 C.ar    1  UNL1       -0.0551
      3 C           8.1040    1.2240   -0.0210 C.ar    1  UNL1       -0.0197
      4 C           7.8830   -0.1250    0.2550 C.ar    1  UNL1        0.1205
      5 C           8.9800   -0.9740    0.4170 C.ar    1  UNL1       -0.0197
      6 C          10.2840   -0.4850    0.3000 C.ar    1  UNL1       -0.0551
      7 O           6.6630   -0.7290    0.3920 O.3     1  UNL1       -0.4918
      8 C           5.5120    0.0920    0.1950 C.3     1  UNL1        0.0927
      9 C           4.2770   -0.7830    0.3660 C.3     1  UNL1        0.0157
     10 C           2.9920    0.0110    0.1710 C.3     1  UNL1        0.0927
     11 O           1.8960   -0.8850    0.3450 O.3     1  UNL1       -0.4904
     12 C           0.6300   -0.3920    0.1640 C.ar    1  UNL1        0.1387
     13 C          -0.4260   -1.3100    0.2600 C.ar    1  UNL1        0.0828
     14 C          -1.7530   -0.9000    0.0860 C.ar    1  UNL1       -0.0364
     15 C          -2.0490    0.4420   -0.1800 C.ar    1  UNL1       -0.0373
     16 C          -0.9960    1.3580   -0.2770 C.ar    1  UNL1       -0.0547
     17 C           0.3300    0.9470   -0.1040 C.ar    1  UNL1       -0.0182
     18 CL         -0.1350   -2.9840    0.5890 Cl      1  UNL1       -0.0797
     19 C          11.9260    1.4000   -0.1130 C.3     1  UNL1       -0.0172
     20 C          12.4710    1.5730   -1.5540 C.3     1  UNL1        0.0110
     21 C          11.9000    2.8210   -2.2940 C.2     1  UNL1        0.0479
     22 O          11.9530    2.7870   -3.5570 O.co2   1  UNL1       -0.5492
     23 O          11.4690    3.7520   -1.5540 O.co2   1  UNL1       -0.5492
     24 C          12.1950    0.3180   -2.4060 C.3     1  UNL1       -0.0541
     25 C          14.0120    1.7920   -1.5320 C.3     1  UNL1       -0.0451
     26 C          14.5160    2.9350   -0.6560 C.3     1  UNL1       -0.0644
     27 C          -3.4750    0.8870   -0.3920 C.3     1  UNL1        0.0680
     28 C          -3.8860    0.8850   -1.8520 C.3     1  UNL1        0.3940
     29 F          -5.1690    1.2970   -1.9760 F       1  UNL1       -0.1704
     30 F          -3.8040   -0.3490   -2.3940 F       1  UNL1       -0.1704
     31 F          -3.1220    1.7200   -2.5900 F       1  UNL1       -0.1704
     32 H           9.5603    2.7145   -0.3398 H       1  UNL1        0.0621
     33 H           7.3022    1.8628   -0.1400 H       1  UNL1        0.0654
     34 H           8.8261   -1.9730    0.6253 H       1  UNL1        0.0654
     35 H          11.0840   -1.1253    0.4224 H       1  UNL1        0.0621
     36 H           5.5279    0.5097   -0.7900 H       1  UNL1        0.0697
     37 H           5.5011    0.8941    0.9031 H       1  UNL1        0.0697
     38 H           4.2810   -1.1995    1.3516 H       1  UNL1        0.0331
     39 H           4.3088   -1.5532   -0.3761 H       1  UNL1        0.0331
     40 H           2.9680    0.4287   -0.8138 H       1  UNL1        0.0697
     41 H           2.9362    0.8120    0.8783 H       1  UNL1        0.0697
     42 H          -2.5169   -1.5905    0.1542 H       1  UNL1        0.0636
     43 H          -1.2000    2.3493   -0.4787 H       1  UNL1        0.0621
     44 H           1.0932    1.6380   -0.1748 H       1  UNL1        0.0655
     45 H          12.5770    0.7244    0.4015 H       1  UNL1        0.0322
     46 H          11.8945    2.3876    0.2975 H       1  UNL1        0.0322
     47 H          11.1411    0.1367   -2.4430 H       1  UNL1        0.0239
     48 H          12.6868   -0.5255   -1.9683 H       1  UNL1        0.0239
     49 H          12.5655    0.4718   -3.3980 H       1  UNL1        0.0239
     50 H          14.3289    1.9852   -2.5356 H       1  UNL1        0.0271
     51 H          14.4225    0.9008   -1.1052 H       1  UNL1        0.0271
     52 H          14.1393    3.8640   -1.0302 H       1  UNL1        0.0230
     53 H          15.5858    2.9516   -0.6719 H       1  UNL1        0.0230
     54 H          14.1764    2.7911    0.3484 H       1  UNL1        0.0230
     55 H          -3.5827    1.8802   -0.0089 H       1  UNL1        0.0400
     56 H          -4.1067    0.1909    0.1191 H       1  UNL1        0.0400
@<TRIPOS>UNITY_ATOM_ATTR
22 1
charge -1
@<TRIPOS>BOND
     1     1     2   ar
     2     1     6   ar
     3     1    19    1
     4     2     3   ar
     5     3     4   ar
     6     4     5   ar
     7     4     7    1
     8     5     6   ar
     9     7     8    1
    10     8     9    1
    11     9    10    1
    12    10    11    1
    13    11    12    1
    14    12    13   ar
    15    12    17   ar
    16    13    14   ar
    17    13    18    1
    18    14    15   ar
    19    15    16   ar
    20    15    27    1
    21    16    17   ar
    22    19    20    1
    23    20    21    1
    24    20    24    1
    25    20    25    1
    26    21    22   ar
    27    21    23   ar
    28    25    26    1
    29    27    28    1
    30    28    29    1
    31    28    30    1
    32    28    31    1
    33     2    32    1
    34     3    33    1
    35     5    34    1
    36     6    35    1
    37     8    36    1
    38     8    37    1
    39     9    38    1
    40     9    39    1
    41    10    40    1
    42    10    41    1
    43    14    42    1
    44    16    43    1
    45    17    44    1
    46    19    45    1
    47    19    46    1
    48    24    47    1
    49    24    48    1
    50    24    49    1
    51    25    50    1
    52    25    51    1
    53    26    52    1
    54    26    53    1
    55    26    54    1
    56    27    55    1
    57    27    56    1
@<TRIPOS>MOLECULE
BDB50168554
 61 63 0 0 0
SMALL
GASTEIGER

@<TRIPOS>ATOM
      1 O           0.9980    0.5480    0.8360 O.3     1  UNL1       -0.4798
      2 C           0.8190    1.9320    0.4530 C.3     1  UNL1        0.1469
      3 C          -0.0180   -0.3050    0.4960 C.ar    1  UNL1        0.1285
      4 C           1.2730    2.1540   -1.0270 C.2     1  UNL1        0.0848
      5 C           5.3770  -10.5070    1.2190 C.ar    1  UNL1       -0.0401
      6 C           0.2870   -1.6690    0.5640 C.ar    1  UNL1        0.0221
      7 C           2.9890  -10.1670    0.7680 C.ar    1  UNL1        0.0828
      8 C           4.0890  -11.0140    0.9580 C.ar    1  UNL1       -0.0361
      9 C          -1.2990    0.1220    0.1370 C.ar    1  UNL1       -0.0053
     10 C           6.5710  -11.4740    1.4250 C.3     1  UNL1       -0.0101
     11 C           3.1340   -8.7770    0.8310 C.ar    1  UNL1        0.1387
     12 C          -0.5920    2.4150    0.7980 C.3     1  UNL1       -0.0037
     13 O           0.6050    3.0150   -1.6740 O.co2   1  UNL1       -0.5457
     14 C           5.5030   -9.1100    1.2780 C.ar    1  UNL1       -0.0545
     15 C          -1.6350    1.5820    0.0630 C.3     1  UNL1       -0.0203
     16 C           4.4030   -8.2580    1.0880 C.ar    1  UNL1       -0.0182
     17 C          -2.2670   -0.8370   -0.1830 C.ar    1  UNL1       -0.0517
     18 C          -0.6820   -2.6230    0.2500 C.ar    1  UNL1        0.1240
     19 CL          1.4510  -10.8960    0.4530 Cl      1  UNL1       -0.0797
     20 O           2.2700    1.4780   -1.4170 O.co2   1  UNL1       -0.5457
     21 C          -1.9590   -2.1980   -0.1220 C.ar    1  UNL1       -0.0195
     22 O           2.0070   -8.0240    0.6320 O.3     1  UNL1       -0.4904
     23 C           1.8450    2.7370    1.2590 C.3     1  UNL1       -0.0195
     24 C           0.7640   -5.9900    0.4610 C.3     1  UNL1        0.0157
     25 O          -0.5140   -3.9810    0.2720 O.3     1  UNL1       -0.4917
     26 C           7.9120  -10.7190    1.7030 C.3     1  UNL1       -0.0467
     27 C           6.2570  -12.3990    2.6240 C.3     1  UNL1       -0.0558
     28 C           6.7340  -12.3360    0.1510 C.3     1  UNL1       -0.0558
     29 C           2.1340   -6.6050    0.7170 C.3     1  UNL1        0.0927
     30 C           0.8000   -4.4680    0.5430 C.3     1  UNL1        0.0927
     31 C           9.1560  -11.5770    1.9210 C.3     1  UNL1       -0.0645
     32 H           1.2323   -1.9707    0.8475 H       1  UNL1        0.0691
     33 H           3.9520  -12.0355    0.9054 H       1  UNL1        0.0636
     34 H          -0.6935    3.4405    0.5101 H       1  UNL1        0.0311
     35 H          -0.7456    2.3112    1.8518 H       1  UNL1        0.0311
     36 H           6.4301   -8.6976    1.4663 H       1  UNL1        0.0622
     37 H          -2.5931    1.7447    0.5108 H       1  UNL1        0.0316
     38 H          -1.6492    1.8791   -0.9648 H       1  UNL1        0.0316
     39 H           4.5350   -7.2358    1.1391 H       1  UNL1        0.0655
     40 H          -3.2132   -0.5370   -0.4655 H       1  UNL1        0.0623
     41 H          -2.6824   -2.8964   -0.3542 H       1  UNL1        0.0654
     42 H           2.8316    2.3999    1.0183 H       1  UNL1        0.0272
     43 H           1.6657    2.5978    2.3046 H       1  UNL1        0.0272
     44 H           1.7538    3.7752    1.0166 H       1  UNL1        0.0272
     45 H           0.0766   -6.3597    1.1929 H       1  UNL1        0.0331
     46 H           0.4579   -6.2618   -0.5276 H       1  UNL1        0.0331
     47 H           7.7718  -10.1240    2.5812 H       1  UNL1        0.0271
     48 H           8.1095  -10.1636    0.8100 H       1  UNL1        0.0271
     49 H           6.1429  -11.8090    3.5093 H       1  UNL1        0.0238
     50 H           7.0601  -13.0930    2.7590 H       1  UNL1        0.0238
     51 H           5.3507  -12.9349    2.4333 H       1  UNL1        0.0238
     52 H           6.9516  -11.7021   -0.6831 H       1  UNL1        0.0238
     53 H           5.8269  -12.8720   -0.0354 H       1  UNL1        0.0238
     54 H           7.5363  -13.0301    0.2903 H       1  UNL1        0.0238
     55 H           2.8299   -6.2586   -0.0183 H       1  UNL1        0.0697
     56 H           2.4916   -6.3226    1.6851 H       1  UNL1        0.0697
     57 H           1.4870   -4.0814   -0.1805 H       1  UNL1        0.0697
     58 H           1.1194   -4.1554    1.5152 H       1  UNL1        0.0697
     59 H           9.0320  -12.1668    2.8051 H       1  UNL1        0.0230
     60 H          10.0112  -10.9436    2.0319 H       1  UNL1        0.0230
     61 H           9.2966  -12.2219    1.0788 H       1  UNL1        0.0230
@<TRIPOS>UNITY_ATOM_ATTR
20 1
charge -1
@<TRIPOS>BOND
     1     1     2    1
     2     1     3    1
     3     2     4    1
     4     2    12    1
     5     2    23    1
     6     3     6   ar
     7     3     9   ar
     8     4    13   ar
     9     4    20   ar
    10     5     8   ar
    11     5    10    1
    12     5    14   ar
    13     6    18   ar
    14     7     8   ar
    15     7    11   ar
    16     7    19    1
    17     9    15    1
    18     9    17   ar
    19    10    26    1
    20    10    27    1
    21    10    28    1
    22    11    16   ar
    23    11    22    1
    24    12    15    1
    25    14    16   ar
    26    17    21   ar
    27    18    21   ar
    28    18    25    1
    29    22    29    1
    30    24    29    1
    31    24    30    1
    32    25    30    1
    33    26    31    1
    34     6    32    1
    35     8    33    1
    36    12    34    1
    37    12    35    1
    38    14    36    1
    39    15    37    1
    40    15    38    1
    41    16    39    1
    42    17    40    1
    43    21    41    1
    44    23    42    1
    45    23    43    1
    46    23    44    1
    47    24    45    1
    48    24    46    1
    49    26    47    1
    50    26    48    1
    51    27    49    1
    52    27    50    1
    53    27    51    1
    54    28    52    1
    55    28    53    1
    56    28    54    1
    57    29    55    1
    58    29    56    1
    59    30    57    1
    60    30    58    1
    61    31    59    1
    62    31    60    1
    63    31    61    1
@<TRIPOS>MOLECULE
BDB50157055
 57 59 0 0 0
SMALL
GASTEIGER

@<TRIPOS>ATOM
      1 C           4.7200   11.8330    0.4440 C.2     1  UNL1        0.1931
      2 C          -4.7440   -2.6570   -0.2550 C.2     1  UNL1        0.0707
      3 C           1.0780   -0.2360    0.6120 C.ar    1  UNL1        0.0828
      4 C           4.5570   10.3580    0.4460 C.ar    1  UNL1        0.0225
      5 C          -3.8020   -1.4380   -0.0300 C.3     1  UNL1        0.1013
      6 C           0.8170    1.1270    0.4190 C.ar    1  UNL1        0.1387
      7 C           0.0430   -1.1800    0.5620 C.ar    1  UNL1       -0.0366
      8 C          -1.2830   -0.7870    0.3170 C.ar    1  UNL1       -0.0430
      9 C          -2.3570   -1.8630    0.2930 C.3     1  UNL1        0.0040
     10 O          -5.7740   -2.4240   -0.9520 O.co2   1  UNL1       -0.5471
     11 O           3.8020   12.5330    0.8640 O.2     1  UNL1       -0.2867
     12 C           5.9580   12.4840   -0.0480 C.ar    1  UNL1        0.0223
     13 C           5.6280    9.4960    0.6950 C.ar    1  UNL1       -0.0475
     14 C           3.2760    9.8300    0.2430 C.ar    1  UNL1       -0.0475
     15 C          -0.5010    1.5200    0.1700 C.ar    1  UNL1       -0.0182
     16 CL          2.6830   -0.8070    0.9250 Cl      1  UNL1       -0.0797
     17 O          -4.3760   -3.7430    0.2810 O.co2   1  UNL1       -0.5471
     18 C          -1.5360    0.5740    0.1210 C.ar    1  UNL1       -0.0549
     19 C           4.1410    7.5820    0.4970 C.ar    1  UNL1        0.1205
     20 C           3.0700    8.4460    0.2630 C.ar    1  UNL1       -0.0193
     21 C           5.4160    8.1150    0.7130 C.ar    1  UNL1       -0.0193
     22 O          -4.3480   -0.5260    0.9550 O.3     1  UNL1       -0.3737
     23 O           1.8880    1.9810    0.4890 O.3     1  UNL1       -0.4904
     24 C           2.9580    4.1100    0.5080 C.3     1  UNL1        0.0157
     25 O           4.0770    6.2160    0.5460 O.3     1  UNL1       -0.4918
     26 C           1.6320    3.3770    0.3520 C.3     1  UNL1        0.0927
     27 C           2.7900    5.6190    0.3830 C.3     1  UNL1        0.0927
     28 C           6.6700   11.9780   -1.1420 C.ar    1  UNL1       -0.0509
     29 C           6.3830   13.6630    0.5760 C.ar    1  UNL1       -0.0509
     30 C          -4.6480   -1.1060    2.2170 C.3     1  UNL1        0.0373
     31 C           7.8200   12.6340   -1.5850 C.ar    1  UNL1       -0.0611
     32 C           7.5330   14.3150    0.1290 C.ar    1  UNL1       -0.0611
     33 C           8.2520   13.7990   -0.9490 C.ar    1  UNL1       -0.0617
     34 H          -3.7476   -0.9042   -0.9557 H       1  UNL1        0.0661
     35 H           0.2585   -2.1787    0.7074 H       1  UNL1        0.0636
     36 H          -2.0667   -2.5855   -0.4409 H       1  UNL1        0.0342
     37 H          -2.4025   -2.2166    1.3019 H       1  UNL1        0.0342
     38 H           6.5717    9.8776    0.8649 H       1  UNL1        0.0626
     39 H           2.4795   10.4650    0.0777 H       1  UNL1        0.0626
     40 H          -0.7155    2.5183    0.0203 H       1  UNL1        0.0655
     41 H          -2.5015    0.8885   -0.0631 H       1  UNL1        0.0621
     42 H           2.1247    8.0635    0.1045 H       1  UNL1        0.0654
     43 H           6.2105    7.4800    0.8879 H       1  UNL1        0.0654
     44 H           3.6315    3.7726   -0.2520 H       1  UNL1        0.0331
     45 H           3.3415    3.8984    1.4842 H       1  UNL1        0.0331
     46 H           0.9473    3.6977    1.1092 H       1  UNL1        0.0697
     47 H           1.1992    3.5860   -0.6040 H       1  UNL1        0.0697
     48 H           2.1247    5.9753    1.1415 H       1  UNL1        0.0697
     49 H           2.3788    5.8717   -0.5720 H       1  UNL1        0.0697
     50 H           6.3457   11.1226   -1.6196 H       1  UNL1        0.0625
     51 H           5.8454   14.0502    1.3672 H       1  UNL1        0.0625
     52 H          -5.0431   -0.3556    2.8695 H       1  UNL1        0.0524
     53 H          -3.7556   -1.5150    2.6428 H       1  UNL1        0.0524
     54 H          -5.3712   -1.8841    2.0890 H       1  UNL1        0.0524
     55 H           8.3520   12.2566   -2.3847 H       1  UNL1        0.0618
     56 H           7.8513   15.1786    0.5959 H       1  UNL1        0.0618
     57 H           9.1046   14.2792   -1.2769 H       1  UNL1        0.0618
@<TRIPOS>UNITY_ATOM_ATTR
17 1
charge -1
@<TRIPOS>BOND
     1     1     4    1
     2     1    11    2
     3     1    12    1
     4     2     5    1
     5     2    10   ar
     6     2    17   ar
     7     3     6   ar
     8     3     7   ar
     9     3    16    1
    10     4    13   ar
    11     4    14   ar
    12     5     9    1
    13     5    22    1
    14     6    15   ar
    15     6    23    1
    16     7     8   ar
    17     8     9    1
    18     8    18   ar
    19    12    28   ar
    20    12    29   ar
    21    13    21   ar
    22    14    20   ar
    23    15    18   ar
    24    19    20   ar
    25    19    21   ar
    26    19    25    1
    27    22    30    1
    28    23    26    1
    29    24    26    1
    30    24    27    1
    31    25    27    1
    32    28    31   ar
    33    29    32   ar
    34    31    33   ar
    35    32    33   ar
    36     5    34    1
    37     7    35    1
    38     9    36    1
    39     9    37    1
    40    13    38    1
    41    14    39    1
    42    15    40    1
    43    18    41    1
    44    20    42    1
    45    21    43    1
    46    24    44    1
    47    24    45    1
    48    26    46    1
    49    26    47    1
    50    27    48    1
    51    27    49    1
    52    28    50    1
    53    29    51    1
    54    30    52    1
    55    30    53    1
    56    30    54    1
    57    31    55    1
    58    32    56    1
    59    33    57    1
@<TRIPOS>MOLECULE
BDB50157057
 57 59 0 0 0
SMALL
GASTEIGER

@<TRIPOS>ATOM
      1 C          -4.5210    2.0030   -0.0470 C.2     1  UNL1        0.0707
      2 C           2.6600   -1.4030    0.1420 C.1     1  UNL1       -0.0663
      3 C           3.6390   -2.0700    0.3420 C.1     1  UNL1       -0.0969
      4 C          -3.3330    1.0160   -0.1810 C.3     1  UNL1        0.1013
      5 O          -5.3150    1.7650    0.9090 O.co2   1  UNL1       -0.5471
      6 C          -2.0940    1.7000   -0.7730 C.3     1  UNL1        0.0040
      7 O          13.4470   -4.8440   -0.2740 O.3     1  UNL1       -0.4560
      8 C           1.4860   -0.6200   -0.0930 C.ar    1  UNL1        0.0249
      9 C          -0.8300    0.8990   -0.5440 C.ar    1  UNL1       -0.0445
     10 C          12.2110   -4.2380   -0.3110 C.ar    1  UNL1        0.1287
     11 O          -4.5640    2.9340   -0.9030 O.co2   1  UNL1       -0.5471
     12 C           9.6200   -3.1760   -0.3710 C.ar    1  UNL1        0.1207
     13 C          14.5430   -4.0320   -0.0920 C.ar    1  UNL1        0.1284
     14 C           1.1380    0.4030    0.7910 C.ar    1  UNL1       -0.0461
     15 C           0.6800   -0.8870   -1.2010 C.ar    1  UNL1       -0.0461
     16 O          -3.6980   -0.1800   -0.9140 O.3     1  UNL1       -0.3737
     17 C          -0.4740   -0.1320   -1.4230 C.ar    1  UNL1       -0.0573
     18 C          -0.0160    1.1580    0.5680 C.ar    1  UNL1       -0.0573
     19 C          11.9560   -3.0710   -1.0330 C.ar    1  UNL1       -0.0159
     20 C          11.1720   -4.8880    0.3550 C.ar    1  UNL1       -0.0159
     21 C           9.8790   -4.3540    0.3320 C.ar    1  UNL1       -0.0165
     22 C          10.6640   -2.5410   -1.0530 C.ar    1  UNL1       -0.0165
     23 O           8.4070   -2.5510   -0.4750 O.3     1  UNL1       -0.4919
     24 C           4.8260   -2.8970    0.5940 C.3     1  UNL1        0.0126
     25 C           7.3000   -3.1650    0.1840 C.3     1  UNL1        0.0904
     26 C          14.6310   -3.1220    0.9650 C.ar    1  UNL1       -0.0193
     27 C          15.6170   -4.2030   -0.9660 C.ar    1  UNL1       -0.0193
     28 C          -4.3650    0.0450   -2.1480 C.3     1  UNL1        0.0373
     29 C           6.0630   -2.3080   -0.0760 C.3     1  UNL1       -0.0078
     30 C          16.7680   -3.4320   -0.8090 C.ar    1  UNL1       -0.0583
     31 C          15.7840   -2.3520    1.1190 C.ar    1  UNL1       -0.0583
     32 C          16.8500   -2.5040    0.2300 C.ar    1  UNL1       -0.0615
     33 H          -3.0745    0.6999    0.8080 H       1  UNL1        0.0661
     34 H          -1.9800    2.6606   -0.3158 H       1  UNL1        0.0342
     35 H          -2.2406    1.7845   -1.8295 H       1  UNL1        0.0342
     36 H           1.7338    0.6016    1.6099 H       1  UNL1        0.0630
     37 H           0.9367   -1.6421   -1.8560 H       1  UNL1        0.0630
     38 H          -1.0692   -0.3354   -2.2412 H       1  UNL1        0.0621
     39 H          -0.2711    1.9111    1.2258 H       1  UNL1        0.0621
     40 H          12.7174   -2.6027   -1.5488 H       1  UNL1        0.0655
     41 H          11.3575   -5.7652    0.8661 H       1  UNL1        0.0655
     42 H           9.1154   -4.8318    0.8356 H       1  UNL1        0.0655
     43 H          10.4772   -1.6715   -1.5765 H       1  UNL1        0.0655
     44 H           4.6547   -3.8799    0.2074 H       1  UNL1        0.0399
     45 H           4.9969   -2.9304    1.6497 H       1  UNL1        0.0399
     46 H           7.4887   -3.2209    1.2357 H       1  UNL1        0.0697
     47 H           7.1499   -4.1574   -0.1868 H       1  UNL1        0.0697
     48 H          13.8470   -3.0202    1.6283 H       1  UNL1        0.0654
     49 H          15.5596   -4.8982   -1.7265 H       1  UNL1        0.0654
     50 H          -4.5898   -0.8944   -2.6084 H       1  UNL1        0.0524
     51 H          -3.7340    0.6175   -2.7953 H       1  UNL1        0.0524
     52 H          -5.2735    0.5814   -1.9697 H       1  UNL1        0.0524
     53 H           6.2333   -1.3249    0.3105 H       1  UNL1        0.0307
     54 H           5.8911   -2.2769   -1.1317 H       1  UNL1        0.0307
     55 H          17.5594   -3.5476   -1.4612 H       1  UNL1        0.0619
     56 H          15.8492   -1.6696    1.8904 H       1  UNL1        0.0619
     57 H          17.6998   -1.9292    0.3415 H       1  UNL1        0.0618
@<TRIPOS>UNITY_ATOM_ATTR
11 1
charge -1
@<TRIPOS>BOND
     1     1     4    1
     2     1     5   ar
     3     1    11   ar
     4     2     3    3
     5     2     8    1
     6     3    24    1
     7     4     6    1
     8     4    16    1
     9     6     9    1
    10     7    10    1
    11     7    13    1
    12     8    14   ar
    13     8    15   ar
    14     9    17   ar
    15     9    18   ar
    16    10    19   ar
    17    10    20   ar
    18    12    21   ar
    19    12    22   ar
    20    12    23    1
    21    13    26   ar
    22    13    27   ar
    23    14    18   ar
    24    15    17   ar
    25    16    28    1
    26    19    22   ar
    27    20    21   ar
    28    23    25    1
    29    24    29    1
    30    25    29    1
    31    26    31   ar
    32    27    30   ar
    33    30    32   ar
    34    31    32   ar
    35     4    33    1
    36     6    34    1
    37     6    35    1
    38    14    36    1
    39    15    37    1
    40    17    38    1
    41    18    39    1
    42    19    40    1
    43    20    41    1
    44    21    42    1
    45    22    43    1
    46    24    44    1
    47    24    45    1
    48    25    46    1
    49    25    47    1
    50    26    48    1
    51    27    49    1
    52    28    50    1
    53    28    51    1
    54    28    52    1
    55    29    53    1
    56    29    54    1
    57    30    55    1
    58    31    56    1
    59    32    57    1
@<TRIPOS>MOLECULE
BDB50169251
 61 63 0 0 0
SMALL
GASTEIGER

@<TRIPOS>ATOM
      1 C           0.7780   -0.3780    0.9010 C.ar    1  UNL1        0.0875
      2 C           0.2040    0.8320    0.5580 C.ar    1  UNL1        0.1752
      3 C           2.0740   -0.0700    1.4850 C.ar    1  UNL1        0.2901
      4 O           1.0140    1.8990    0.8710 O.2     1  UNL1       -0.3738
      5 N           2.1620    1.2920    1.4450 N.ar    1  UNL1       -0.1733
      6 C          -1.0410    0.9050   -0.0550 C.ar    1  UNL1        0.0401
      7 C          -1.7080   -0.3210   -0.2980 C.ar    1  UNL1        0.1319
      8 C           0.1640   -1.5860    0.6470 C.ar    1  UNL1       -0.0390
      9 O          -2.9070   -0.2910   -0.9780 O.3     1  UNL1       -0.4777
     10 C          -1.0970   -1.5690    0.0180 C.ar    1  UNL1       -0.0044
     11 C          -4.0660   -0.5070   -0.1300 C.3     1  UNL1        0.1641
     12 C          -5.0210   -1.5660   -0.7640 C.2     1  UNL1        0.0865
     13 O           2.8780   -0.8840    1.9010 O.2     1  UNL1       -0.2643
     14 C          -4.8510    0.7860    0.0180 C.ar    1  UNL1       -0.0017
     15 C          -6.2790    3.2110    0.3100 C.ar    1  UNL1       -0.0448
     16 O          -5.6130   -2.3130    0.0750 O.co2   1  UNL1       -0.5457
     17 C          -5.2280    1.5360   -1.1050 C.ar    1  UNL1       -0.0544
     18 C          -5.2100    1.2540    1.2880 C.ar    1  UNL1       -0.0544
     19 C          -5.9140    2.4530    1.4320 C.ar    1  UNL1       -0.0579
     20 C          -5.9300    2.7350   -0.9610 C.ar    1  UNL1       -0.0579
     21 O          -5.1160   -1.5800   -2.0280 O.co2   1  UNL1       -0.5457
     22 C           3.2070    2.1860    1.8780 C.3     1  UNL1        0.0489
     23 C          -7.0370    4.5190    0.4420 C.3     1  UNL1       -0.0215
     24 C          -1.5940    2.2420   -0.4770 C.3     1  UNL1       -0.0208
     25 C          -1.7250   -2.8970   -0.3490 C.3     1  UNL1       -0.0244
     26 C          -8.4080    4.3140    1.0910 C.3     1  UNL1       -0.0587
     27 C          -6.2210    5.5650    1.2080 C.3     1  UNL1       -0.0587
     28 C          -1.4610    2.4780   -1.9820 C.3     1  UNL1       -0.0517
     29 C          -2.2750   -3.6440    0.8680 C.3     1  UNL1       -0.0518
     30 C          -2.9360   -4.9520    0.4630 C.3     1  UNL1       -0.0650
     31 C          -1.9930    3.8470   -2.3770 C.3     1  UNL1       -0.0650
     32 H           0.6146   -2.4765    0.9098 H       1  UNL1        0.0630
     33 H          -3.7141   -0.8488    0.8209 H       1  UNL1        0.0848
     34 H          -4.9840    1.1982   -2.0491 H       1  UNL1        0.0622
     35 H          -4.9524    0.7087    2.1254 H       1  UNL1        0.0622
     36 H          -6.1683    2.7845    2.3756 H       1  UNL1        0.0620
     37 H          -6.1944    3.2759   -1.7992 H       1  UNL1        0.0620
     38 H           4.0144    1.6177    2.2904 H       1  UNL1        0.0488
     39 H           2.8218    2.8508    2.6227 H       1  UNL1        0.0488
     40 H           3.5604    2.7530    1.0422 H       1  UNL1        0.0488
     41 H          -7.1985    4.8895   -0.5487 H       1  UNL1        0.0343
     42 H          -1.0619    3.0129    0.0402 H       1  UNL1        0.0315
     43 H          -2.6362    2.2555   -0.2351 H       1  UNL1        0.0315
     44 H          -0.9837   -3.5081   -0.8200 H       1  UNL1        0.0314
     45 H          -2.5463   -2.6969   -1.0049 H       1  UNL1        0.0314
     46 H          -8.2795    3.9426    2.0862 H       1  UNL1        0.0235
     47 H          -8.9724    3.6088    0.5173 H       1  UNL1        0.0235
     48 H          -8.9305    5.2472    1.1232 H       1  UNL1        0.0235
     49 H          -6.0443    5.2193    2.2051 H       1  UNL1        0.0235
     50 H          -6.7637    6.4866    1.2409 H       1  UNL1        0.0235
     51 H          -5.2851    5.7197    0.7130 H       1  UNL1        0.0235
     52 H          -2.0151    1.7254   -2.5029 H       1  UNL1        0.0266
     53 H          -0.4236    2.4320   -2.2402 H       1  UNL1        0.0266
     54 H          -2.9976   -3.0259    1.3587 H       1  UNL1        0.0266
     55 H          -1.4592   -3.8674    1.5234 H       1  UNL1        0.0266
     56 H          -3.7559   -4.7489   -0.1939 H       1  UNL1        0.0230
     57 H          -3.2949   -5.4556    1.3362 H       1  UNL1        0.0230
     58 H          -2.2224   -5.5720   -0.0383 H       1  UNL1        0.0230
     59 H          -3.0311    3.9122   -2.1261 H       1  UNL1        0.0230
     60 H          -1.8713    3.9865   -3.4309 H       1  UNL1        0.0230
     61 H          -1.4508    4.6054   -1.8519 H       1  UNL1        0.0230
@<TRIPOS>UNITY_ATOM_ATTR
21 1
charge -1
@<TRIPOS>BOND
     1     1     2   ar
     2     1     3   ar
     3     1     8   ar
     4     2     4   ar
     5     2     6   ar
     6     3     5   ar
     7     3    13    2
     8     4     5   ar
     9     5    22    1
    10     6     7   ar
    11     6    24    1
    12     7     9    1
    13     7    10   ar
    14     8    10   ar
    15     9    11    1
    16    10    25    1
    17    11    12    1
    18    11    14    1
    19    12    16   ar
    20    12    21   ar
    21    14    17   ar
    22    14    18   ar
    23    15    19   ar
    24    15    20   ar
    25    15    23    1
    26    17    20   ar
    27    18    19   ar
    28    23    26    1
    29    23    27    1
    30    24    28    1
    31    25    29    1
    32    28    31    1
    33    29    30    1
    34     8    32    1
    35    11    33    1
    36    17    34    1
    37    18    35    1
    38    19    36    1
    39    20    37    1
    40    22    38    1
    41    22    39    1
    42    22    40    1
    43    23    41    1
    44    24    42    1
    45    24    43    1
    46    25    44    1
    47    25    45    1
    48    26    46    1
    49    26    47    1
    50    26    48    1
    51    27    49    1
    52    27    50    1
    53    27    51    1
    54    28    52    1
    55    28    53    1
    56    29    54    1
    57    29    55    1
    58    30    56    1
    59    30    57    1
    60    30    58    1
    61    31    59    1
    62    31    60    1
    63    31    61    1
@<TRIPOS>MOLECULE
BDB50169253
 63 64 0 0 0
SMALL
GASTEIGER

@<TRIPOS>ATOM
      1 C           1.3610    0.3920   -0.4270 C.ar    1  UNL1        0.1283
      2 O           2.5750    0.3030   -1.0650 O.3     1  UNL1       -0.4779
      3 C           3.7050    0.4310   -0.1630 C.3     1  UNL1        0.1641
      4 C          -1.1860    0.5360    0.7680 C.ar    1  UNL1        0.0181
      5 C           0.7850    1.6500   -0.1630 C.ar    1  UNL1       -0.0047
      6 C           0.6460   -0.7910   -0.1540 C.ar    1  UNL1       -0.0047
      7 C           4.6810    1.5340   -0.6660 C.2     1  UNL1        0.0865
      8 C          -0.4830    1.7030    0.4470 C.ar    1  UNL1       -0.0446
      9 C          -0.6200   -0.7030    0.4550 C.ar    1  UNL1       -0.0446
     10 C          -2.5330    0.6560    1.4080 C.2     1  UNL1        0.1629
     11 C           4.4840   -0.8730   -0.1140 C.ar    1  UNL1       -0.0017
     12 C           5.9130   -3.3130   -0.0040 C.ar    1  UNL1       -0.0448
     13 O           5.2260    2.2130    0.2580 O.co2   1  UNL1       -0.5457
     14 O          -3.0690    1.7590    1.5000 O.2     1  UNL1       -0.2921
     15 C           4.8300   -1.5560   -1.2890 C.ar    1  UNL1       -0.0544
     16 C           4.8780   -1.4150    1.1160 C.ar    1  UNL1       -0.0544
     17 C           5.5810   -2.6220    1.1710 C.ar    1  UNL1       -0.0579
     18 C           5.5320   -2.7620   -1.2350 C.ar    1  UNL1       -0.0579
     19 O           4.8320    1.6480   -1.9180 O.co2   1  UNL1       -0.5457
     20 C           6.6720   -4.6270    0.0310 C.3     1  UNL1       -0.0215
     21 C           1.1650   -2.1620   -0.5270 C.3     1  UNL1       -0.0244
     22 C           1.4540    2.9520   -0.5400 C.3     1  UNL1       -0.0244
     23 C          -3.2030   -0.6070    1.9250 C.3     1  UNL1        0.0076
     24 C           8.0600   -4.4610    0.6530 C.3     1  UNL1       -0.0587
     25 C           5.8750   -5.7150    0.7550 C.3     1  UNL1       -0.0587
     26 C           1.0790   -2.4300   -2.0310 C.3     1  UNL1       -0.0518
     27 C           2.0030    3.6990    0.6780 C.3     1  UNL1       -0.0518
     28 C          -4.4770   -0.3090    2.6980 C.3     1  UNL1       -0.0582
     29 C           1.5600   -3.8320   -2.3720 C.3     1  UNL1       -0.0650
     30 C           2.7280    4.9710    0.2680 C.3     1  UNL1       -0.0650
     31 H           3.3222    0.6827    0.8040 H       1  UNL1        0.0848
     32 H          -0.9026    2.6211    0.6618 H       1  UNL1        0.0628
     33 H          -1.1389   -1.5677    0.6740 H       1  UNL1        0.0628
     34 H           4.5625   -1.1625   -2.2048 H       1  UNL1        0.0622
     35 H           4.6469   -0.9182    1.9905 H       1  UNL1        0.0622
     36 H           5.8589   -3.0092    2.0863 H       1  UNL1        0.0620
     37 H           5.7727   -3.2525   -2.1105 H       1  UNL1        0.0620
     38 H           6.8065   -4.9391   -0.9836 H       1  UNL1        0.0343
     39 H           0.5855   -2.9001   -0.0129 H       1  UNL1        0.0314
     40 H           2.1966   -2.2073   -0.2464 H       1  UNL1        0.0314
     41 H           0.7380    3.5765   -1.0323 H       1  UNL1        0.0314
     42 H           2.2791    2.7216   -1.1811 H       1  UNL1        0.0314
     43 H          -2.5205   -1.1189    2.5708 H       1  UNL1        0.0342
     44 H          -3.4661   -1.2076    1.0794 H       1  UNL1        0.0342
     45 H           7.9594   -4.1484    1.6714 H       1  UNL1        0.0235
     46 H           8.6100   -3.7238    0.1063 H       1  UNL1        0.0235
     47 H           8.5813   -5.3947    0.6164 H       1  UNL1        0.0235
     48 H           5.7253   -5.4284    1.7750 H       1  UNL1        0.0235
     49 H           6.4165   -6.6372    0.7194 H       1  UNL1        0.0235
     50 H           4.9261   -5.8400    0.2767 H       1  UNL1        0.0235
     51 H           1.6881   -1.7176   -2.5472 H       1  UNL1        0.0266
     52 H           0.0558   -2.3421   -2.3313 H       1  UNL1        0.0266
     53 H           2.6863    3.0612    1.1987 H       1  UNL1        0.0266
     54 H           1.1804    3.9680    1.3071 H       1  UNL1        0.0266
     55 H          -4.2437    0.2921    3.5519 H       1  UNL1        0.0234
     56 H          -4.9223   -1.2274    3.0192 H       1  UNL1        0.0234
     57 H          -5.1619    0.2180    2.0671 H       1  UNL1        0.0234
     58 H           2.5834   -3.9392   -2.0785 H       1  UNL1        0.0230
     59 H           1.4726   -3.9925   -3.4263 H       1  UNL1        0.0230
     60 H           0.9624   -4.5506   -1.8511 H       1  UNL1        0.0230
     61 H           3.5557    4.7222   -0.3628 H       1  UNL1        0.0230
     62 H           3.0844    5.4757    1.1416 H       1  UNL1        0.0230
     63 H           2.0541    5.6102   -0.2632 H       1  UNL1        0.0230
@<TRIPOS>UNITY_ATOM_ATTR
19 1
charge -1
@<TRIPOS>BOND
     1     1     2    1
     2     1     5   ar
     3     1     6   ar
     4     2     3    1
     5     3     7    1
     6     3    11    1
     7     4     8   ar
     8     4     9   ar
     9     4    10    1
    10     5     8   ar
    11     5    22    1
    12     6     9   ar
    13     6    21    1
    14     7    13   ar
    15     7    19   ar
    16    10    14    2
    17    10    23    1
    18    11    15   ar
    19    11    16   ar
    20    12    17   ar
    21    12    18   ar
    22    12    20    1
    23    15    18   ar
    24    16    17   ar
    25    20    24    1
    26    20    25    1
    27    21    26    1
    28    22    27    1
    29    23    28    1
    30    26    29    1
    31    27    30    1
    32     3    31    1
    33     8    32    1
    34     9    33    1
    35    15    34    1
    36    16    35    1
    37    17    36    1
    38    18    37    1
    39    20    38    1
    40    21    39    1
    41    21    40    1
    42    22    41    1
    43    22    42    1
    44    23    43    1
    45    23    44    1
    46    24    45    1
    47    24    46    1
    48    24    47    1
    49    25    48    1
    50    25    49    1
    51    25    50    1
    52    26    51    1
    53    26    52    1
    54    27    53    1
    55    27    54    1
    56    28    55    1
    57    28    56    1
    58    28    57    1
    59    29    58    1
    60    29    59    1
    61    29    60    1
    62    30    61    1
    63    30    62    1
    64    30    63    1
@<TRIPOS>MOLECULE
BDB50169245
 67 69 0 0 0
SMALL
GASTEIGER

@<TRIPOS>ATOM
      1 C           1.1880   -3.1380   -0.9730 C.ar    1  UNL1        0.4215
      2 N          -0.0550   -2.5920   -0.6970 N.ar    1  UNL1       -0.2716
      3 C           1.4620   -0.9820   -0.7130 C.ar    1  UNL1        0.1636
      4 C           0.1180   -1.2330   -0.5240 C.ar    1  UNL1        0.0912
      5 O           2.1750   -2.1430   -0.9930 O.2     1  UNL1       -0.4070
      6 C           2.0040    0.2920   -0.6080 C.ar    1  UNL1        0.0390
      7 C           1.1040    1.3370   -0.3030 C.ar    1  UNL1        0.1319
      8 O           1.6130    2.6020   -0.1170 O.3     1  UNL1       -0.4777
      9 C          -0.7690   -0.2310   -0.1960 C.ar    1  UNL1       -0.0277
     10 C          -0.2750    1.0800   -0.0620 C.ar    1  UNL1       -0.0032
     11 C           1.3820    3.4870   -1.2440 C.3     1  UNL1        0.1641
     12 C           2.7150    3.7800   -1.9810 C.2     1  UNL1        0.0865
     13 O           1.4390   -4.3200   -1.1750 O.2     1  UNL1       -0.2226
     14 C           0.8200    4.8160   -0.7610 C.ar    1  UNL1       -0.0017
     15 C          -1.3190   -3.3040   -0.5980 C.3     1  UNL1        0.0353
     16 C          -0.2530    7.2860    0.1150 C.ar    1  UNL1       -0.0448
     17 O           2.6500    3.6650   -3.2440 O.co2   1  UNL1       -0.5457
     18 C          -0.1070    5.5130   -1.5480 C.ar    1  UNL1       -0.0544
     19 C           1.2240    5.3830    0.4550 C.ar    1  UNL1       -0.0544
     20 C           0.6920    6.6000    0.8900 C.ar    1  UNL1       -0.0579
     21 C          -0.6410    6.7300   -1.1130 C.ar    1  UNL1       -0.0579
     22 O           3.7130    4.0940   -1.2680 O.co2   1  UNL1       -0.5457
     23 C          -0.8530    8.6040    0.5690 C.3     1  UNL1       -0.0215
     24 C           3.4870    0.5070   -0.7640 C.3     1  UNL1       -0.0209
     25 C          -1.2400    2.1540    0.3940 C.3     1  UNL1       -0.0244
     26 C          -1.3050   -4.3080    0.5550 C.3     1  UNL1       -0.0443
     27 C          -1.6800   -3.9910   -1.9150 C.3     1  UNL1       -0.0443
     28 C          -1.6440    8.4400    1.8700 C.3     1  UNL1       -0.0587
     29 C           0.2160    9.6900    0.7140 C.3     1  UNL1       -0.0587
     30 C           4.1910    0.6720    0.5840 C.3     1  UNL1       -0.0517
     31 C          -1.0210    2.5560    1.8530 C.3     1  UNL1       -0.0518
     32 C          -2.0000    3.6380    2.2820 C.3     1  UNL1       -0.0650
     33 C           5.6870    0.8820    0.4050 C.3     1  UNL1       -0.0650
     34 H          -1.7701   -0.4366   -0.0523 H       1  UNL1        0.0643
     35 H           0.6905    3.0049   -1.9031 H       1  UNL1        0.0848
     36 H          -2.0764   -2.5771   -0.3910 H       1  UNL1        0.0524
     37 H          -0.3986    5.1239   -2.4583 H       1  UNL1        0.0622
     38 H           1.9233    4.8957    1.0368 H       1  UNL1        0.0622
     39 H           0.9983    6.9978    1.7916 H       1  UNL1        0.0620
     40 H          -1.3286    7.2249   -1.7023 H       1  UNL1        0.0620
     41 H          -1.5350    8.9184   -0.1932 H       1  UNL1        0.0343
     42 H           3.6479    1.3895   -1.3473 H       1  UNL1        0.0315
     43 H           3.8958   -0.3570   -1.2449 H       1  UNL1        0.0315
     44 H          -2.2390    1.7864    0.2855 H       1  UNL1        0.0314
     45 H          -1.0721    3.0204   -0.2110 H       1  UNL1        0.0314
     46 H          -0.5545   -5.0488    0.3738 H       1  UNL1        0.0249
     47 H          -2.2622   -4.7805    0.6281 H       1  UNL1        0.0249
     48 H          -1.0885   -3.7973    1.4700 H       1  UNL1        0.0249
     49 H          -0.9382   -4.7258   -2.1490 H       1  UNL1        0.0249
     50 H          -1.7201   -3.2627   -2.6979 H       1  UNL1        0.0249
     51 H          -2.6344   -4.4653   -1.8199 H       1  UNL1        0.0249
     52 H          -0.9842    8.1252    2.6513 H       1  UNL1        0.0235
     53 H          -2.4094    7.7051    1.7319 H       1  UNL1        0.0235
     54 H          -2.0911    9.3750    2.1359 H       1  UNL1        0.0235
     55 H           0.9151    9.4034    1.4717 H       1  UNL1        0.0235
     56 H          -0.2489   10.6137    0.9887 H       1  UNL1        0.0235
     57 H           0.7291    9.8120   -0.2170 H       1  UNL1        0.0235
     58 H           4.0305   -0.2081    1.1710 H       1  UNL1        0.0266
     59 H           3.7856    1.5329    1.0733 H       1  UNL1        0.0266
     60 H          -0.0229    2.9243    1.9668 H       1  UNL1        0.0266
     61 H          -1.1796    1.6946    2.4677 H       1  UNL1        0.0266
     62 H          -1.8563    4.5091    1.6774 H       1  UNL1        0.0230
     63 H          -1.8309    3.8850    3.3093 H       1  UNL1        0.0230
     64 H          -3.0015    3.2811    2.1611 H       1  UNL1        0.0230
     65 H           6.1109    0.0297   -0.0836 H       1  UNL1        0.0230
     66 H           6.1465    1.0091    1.3629 H       1  UNL1        0.0230
     67 H           5.8559    1.7550   -0.1902 H       1  UNL1        0.0230
@<TRIPOS>UNITY_ATOM_ATTR
22 1
charge -1
@<TRIPOS>BOND
     1     1     2   ar
     2     1     5   ar
     3     1    13    2
     4     2     4   ar
     5     2    15    1
     6     3     4   ar
     7     3     5   ar
     8     3     6   ar
     9     4     9   ar
    10     6     7   ar
    11     6    24    1
    12     7     8    1
    13     7    10   ar
    14     8    11    1
    15     9    10   ar
    16    10    25    1
    17    11    12    1
    18    11    14    1
    19    12    17   ar
    20    12    22   ar
    21    14    18   ar
    22    14    19   ar
    23    15    26    1
    24    15    27    1
    25    16    20   ar
    26    16    21   ar
    27    16    23    1
    28    18    21   ar
    29    19    20   ar
    30    23    28    1
    31    23    29    1
    32    24    30    1
    33    25    31    1
    34    30    33    1
    35    31    32    1
    36     9    34    1
    37    11    35    1
    38    15    36    1
    39    18    37    1
    40    19    38    1
    41    20    39    1
    42    21    40    1
    43    23    41    1
    44    24    42    1
    45    24    43    1
    46    25    44    1
    47    25    45    1
    48    26    46    1
    49    26    47    1
    50    26    48    1
    51    27    49    1
    52    27    50    1
    53    27    51    1
    54    28    52    1
    55    28    53    1
    56    28    54    1
    57    29    55    1
    58    29    56    1
    59    29    57    1
    60    30    58    1
    61    30    59    1
    62    31    60    1
    63    31    61    1
    64    32    62    1
    65    32    63    1
    66    32    64    1
    67    33    65    1
    68    33    66    1
    69    33    67    1
@<TRIPOS>MOLECULE
BDB50179824
 54 55 0 0 0
SMALL
GASTEIGER

@<TRIPOS>ATOM
      1 C          10.4810    0.6620    0.1730 C.ar    1  UNL1       -0.0463
      2 C           9.3740    1.4360    0.5530 C.ar    1  UNL1       -0.0551
      3 C           8.0690    0.9560    0.3930 C.ar    1  UNL1       -0.0197
      4 C           7.8510   -0.3140   -0.1410 C.ar    1  UNL1        0.1205
      5 C           8.9490   -1.0990   -0.4980 C.ar    1  UNL1       -0.0197
      6 C          10.2510   -0.6190   -0.3390 C.ar    1  UNL1       -0.0551
      7 O           6.6330   -0.9000   -0.3540 O.3     1  UNL1       -0.4918
      8 C           5.4780   -0.1080   -0.0880 C.3     1  UNL1        0.0927
      9 C           4.2530   -0.9380   -0.4500 C.3     1  UNL1        0.0157
     10 C           2.9590   -0.1750   -0.2000 C.3     1  UNL1        0.0927
     11 O           1.8750   -1.0270   -0.5650 O.3     1  UNL1       -0.4904
     12 C           0.6030   -0.5400   -0.4200 C.ar    1  UNL1        0.1390
     13 C          -0.4470   -1.3950   -0.7840 C.ar    1  UNL1        0.0860
     14 C          -1.7770   -0.9810   -0.6690 C.ar    1  UNL1        0.0023
     15 C          -2.0850    0.2930   -0.1890 C.ar    1  UNL1        0.1316
     16 C          -1.0460    1.1480    0.1750 C.ar    1  UNL1       -0.0161
     17 C           0.2890    0.7340    0.0600 C.ar    1  UNL1       -0.0150
     18 CL         -0.1420   -2.9880   -1.3870 Cl      1  UNL1       -0.0796
     19 C          11.8830    1.1970    0.3610 C.3     1  UNL1       -0.0172
     20 C          12.7430    1.4900   -0.8960 C.3     1  UNL1        0.0110
     21 C          13.2770    0.2130   -1.6070 C.2     1  UNL1        0.0479
     22 O          13.4670    0.3120   -2.8530 O.co2   1  UNL1       -0.5492
     23 O          13.4940   -0.7840   -0.8580 O.co2   1  UNL1       -0.5492
     24 C          14.0880    2.0780   -0.3860 C.3     1  UNL1       -0.0541
     25 C          12.1310    2.5470   -1.8500 C.3     1  UNL1       -0.0451
     26 C          10.9050    2.1310   -2.6560 C.3     1  UNL1       -0.0644
     27 O          -3.4220    0.5680   -0.1280 O.3     1  UNL1       -0.4057
     28 C          -3.8150    1.8440    0.3500 C.3     1  UNL1        0.5752
     29 F          -5.1630    1.9180    0.3340 F       1  UNL1       -0.1328
     30 F          -3.3290    2.8270   -0.4370 F       1  UNL1       -0.1328
     31 F          -3.3970    2.0350    1.6200 F       1  UNL1       -0.1328
     32 H           9.5244    2.3738    0.9567 H       1  UNL1        0.0621
     33 H           7.2667    1.5427    0.6706 H       1  UNL1        0.0654
     34 H           8.7970   -2.0441   -0.8835 H       1  UNL1        0.0654
     35 H          11.0511   -1.2154   -0.6019 H       1  UNL1        0.0621
     36 H           5.5027    0.7826   -0.6805 H       1  UNL1        0.0697
     37 H           5.4473    0.1748    0.9435 H       1  UNL1        0.0697
     38 H           4.2502   -1.8284    0.1434 H       1  UNL1        0.0331
     39 H           4.3055   -1.1711   -1.4930 H       1  UNL1        0.0331
     40 H           2.9397    0.7142   -0.7948 H       1  UNL1        0.0697
     41 H           2.8835    0.1070    0.8294 H       1  UNL1        0.0697
     42 H          -2.5379   -1.6228   -0.9413 H       1  UNL1        0.0670
     43 H          -1.2607    2.0923    0.5316 H       1  UNL1        0.0655
     44 H           1.0481    1.3777    0.3330 H       1  UNL1        0.0656
     45 H          12.4176    0.4799    0.9483 H       1  UNL1        0.0322
     46 H          11.7365    2.1591    0.8057 H       1  UNL1        0.0322
     47 H          14.5521    1.3812    0.2803 H       1  UNL1        0.0239
     48 H          13.9026    2.9964    0.1308 H       1  UNL1        0.0239
     49 H          14.7354    2.2613   -1.2180 H       1  UNL1        0.0239
     50 H          12.8923    2.8318   -2.5458 H       1  UNL1        0.0271
     51 H          11.7866    3.3311   -1.2086 H       1  UNL1        0.0271
     52 H          11.1709    1.3420   -3.3281 H       1  UNL1        0.0230
     53 H          10.5443    2.9692   -3.2148 H       1  UNL1        0.0230
     54 H          10.1396    1.7900   -1.9906 H       1  UNL1        0.0230
@<TRIPOS>UNITY_ATOM_ATTR
22 1
charge -1
@<TRIPOS>BOND
     1     1     2   ar
     2     1     6   ar
     3     1    19    1
     4     2     3   ar
     5     3     4   ar
     6     4     5   ar
     7     4     7    1
     8     5     6   ar
     9     7     8    1
    10     8     9    1
    11     9    10    1
    12    10    11    1
    13    11    12    1
    14    12    13   ar
    15    12    17   ar
    16    13    14   ar
    17    13    18    1
    18    14    15   ar
    19    15    16   ar
    20    15    27    1
    21    16    17   ar
    22    19    20    1
    23    20    21    1
    24    20    24    1
    25    20    25    1
    26    21    22   ar
    27    21    23   ar
    28    25    26    1
    29    27    28    1
    30    28    29    1
    31    28    30    1
    32    28    31    1
    33     2    32    1
    34     3    33    1
    35     5    34    1
    36     6    35    1
    37     8    36    1
    38     8    37    1
    39     9    38    1
    40     9    39    1
    41    10    40    1
    42    10    41    1
    43    14    42    1
    44    16    43    1
    45    17    44    1
    46    19    45    1
    47    19    46    1
    48    24    47    1
    49    24    48    1
    50    24    49    1
    51    25    50    1
    52    25    51    1
    53    26    52    1
    54    26    53    1
    55    26    54    1
@<TRIPOS>MOLECULE
BDB50212693
 56 58 0 0 0
SMALL
GASTEIGER

@<TRIPOS>ATOM
      1 C          10.1240   -6.6170   -1.0530 C.ar    1  UNL1       -0.0548
      2 C           9.7630   -6.0230    0.1630 C.ar    1  UNL1       -0.0104
      3 C          10.2900   -6.5370    1.3550 C.ar    1  UNL1       -0.0548
      4 C          11.1770   -7.6150    1.3290 C.ar    1  UNL1       -0.0498
      5 C          11.5410   -8.2090    0.1130 C.ar    1  UNL1        0.0548
      6 C          11.0110   -7.6960   -1.0790 C.ar    1  UNL1       -0.0498
      7 C           8.7820   -4.8800    0.1890 C.3     1  UNL1        0.1146
      8 O           7.4710   -5.4380    0.2090 O.3     1  UNL1       -0.4874
      9 C          12.5130   -9.3570    0.0850 C.3     1  UNL1        0.4174
     10 F          12.4540  -10.1370    1.2010 F       1  UNL1       -0.1659
     11 F          12.3170  -10.2010   -0.9660 F       1  UNL1       -0.1659
     12 F          13.8040   -8.9370   -0.0090 F       1  UNL1       -0.1659
     13 C           6.4210   -4.5620    0.2160 C.ar    1  UNL1        0.1210
     14 C           5.1610   -5.1650    0.2160 C.ar    1  UNL1       -0.0196
     15 C           4.0000   -4.3900    0.2210 C.ar    1  UNL1       -0.0543
     16 C           4.0850   -2.9930    0.2330 C.ar    1  UNL1       -0.0370
     17 C           5.3510   -2.3920    0.2260 C.ar    1  UNL1       -0.0543
     18 C           6.5130   -3.1700    0.2210 C.ar    1  UNL1       -0.0196
     19 C           2.8390   -2.1450    0.2240 C.3     1  UNL1        0.0235
     20 S           2.3390   -1.7200   -1.4760 S.3     1  UNL1       -0.1169
     21 C           0.9210   -0.6880   -1.0880 C.ar    1  UNL1        0.0503
     22 C          -1.3900    0.7980   -0.4920 C.ar    1  UNL1        0.1275
     23 C          -1.5070   -0.4670   -1.0920 C.ar    1  UNL1       -0.0075
     24 C          -0.3490   -1.2000   -1.3850 C.ar    1  UNL1       -0.0384
     25 C          -0.1190    1.3220   -0.2190 C.ar    1  UNL1        0.0231
     26 C           1.0410    0.5910   -0.5140 C.ar    1  UNL1        0.1369
     27 O           2.3170    1.0390   -0.2770 O.3     1  UNL1       -0.4939
     28 O          -2.5730    1.4400   -0.2270 O.3     1  UNL1       -0.4858
     29 C          -2.5210    2.6210    0.5850 C.3     1  UNL1        0.1287
     30 C          -3.9570    3.0340    0.9420 C.2     1  UNL1        0.0789
     31 O          -4.4410    3.9700    0.2430 O.co2   1  UNL1       -0.5463
     32 O          -4.4700    2.4140    1.9190 O.co2   1  UNL1       -0.5463
     33 C           2.4720    2.3500    0.2500 C.3     1  UNL1        0.0788
     34 C          -2.8590   -1.0460   -1.4050 C.3     1  UNL1       -0.0362
     35 H           9.7319   -6.2549   -1.9363 H       1  UNL1        0.0621
     36 H          10.0209   -6.1162    2.2580 H       1  UNL1        0.0621
     37 H          11.5679   -7.9774    2.2127 H       1  UNL1        0.0623
     38 H          11.2779   -8.1183   -1.9820 H       1  UNL1        0.0623
     39 H           8.9066   -4.2723   -0.6828 H       1  UNL1        0.0748
     40 H           8.9425   -4.2665    1.0508 H       1  UNL1        0.0748
     41 H           5.0877   -6.1944    0.2123 H       1  UNL1        0.0654
     42 H           3.0756   -4.8488    0.2158 H       1  UNL1        0.0622
     43 H           5.4267   -1.3628    0.2245 H       1  UNL1        0.0622
     44 H           7.4389   -2.7142    0.2210 H       1  UNL1        0.0654
     45 H           3.0275   -1.2429    0.7676 H       1  UNL1        0.0428
     46 H           2.0476   -2.7031    0.6791 H       1  UNL1        0.0428
     47 H          -0.4328   -2.1295   -1.8255 H       1  UNL1        0.0633
     48 H          -0.0355    2.2591    0.2051 H       1  UNL1        0.0691
     49 H          -2.0431    3.4102    0.0432 H       1  UNL1        0.0760
     50 H          -1.9639    2.4266    1.4776 H       1  UNL1        0.0760
     51 H           3.5127    2.5606    0.3819 H       1  UNL1        0.0660
     52 H           1.9722    2.4164    1.1938 H       1  UNL1        0.0660
     53 H           2.0477    3.0598   -0.4290 H       1  UNL1        0.0660
     54 H          -3.6200   -0.3518   -1.1154 H       1  UNL1        0.0279
     55 H          -2.9881   -1.9618   -0.8668 H       1  UNL1        0.0279
     56 H          -2.9309   -1.2364   -2.4555 H       1  UNL1        0.0279
@<TRIPOS>UNITY_ATOM_ATTR
31 1
charge -1
@<TRIPOS>BOND
     1     1     2   ar
     2     1     6   ar
     3     2     3   ar
     4     2     7    1
     5     3     4   ar
     6     4     5   ar
     7     5     6   ar
     8     5     9    1
     9     7     8    1
    10     8    13    1
    11     9    10    1
    12     9    11    1
    13     9    12    1
    14    13    14   ar
    15    13    18   ar
    16    14    15   ar
    17    15    16   ar
    18    16    17   ar
    19    16    19    1
    20    17    18   ar
    21    19    20    1
    22    20    21    1
    23    21    24   ar
    24    21    26   ar
    25    22    23   ar
    26    22    25   ar
    27    22    28    1
    28    23    24   ar
    29    23    34    1
    30    25    26   ar
    31    26    27    1
    32    27    33    1
    33    28    29    1
    34    29    30    1
    35    30    31   ar
    36    30    32   ar
    37     1    35    1
    38     3    36    1
    39     4    37    1
    40     6    38    1
    41     7    39    1
    42     7    40    1
    43    14    41    1
    44    15    42    1
    45    17    43    1
    46    18    44    1
    47    19    45    1
    48    19    46    1
    49    24    47    1
    50    25    48    1
    51    29    49    1
    52    29    50    1
    53    33    51    1
    54    33    52    1
    55    33    53    1
    56    34    54    1
    57    34    55    1
    58    34    56    1
@<TRIPOS>MOLECULE
BDB50311792
 60 62 0 0 0
SMALL
GASTEIGER

@<TRIPOS>ATOM
      1 C           8.1780   -0.2920    0.2770 C.ar    1  UNL1       -0.0141
      2 C           8.1230    1.1030    0.1460 C.ar    1  UNL1        0.0576
      3 C           6.9140    1.7650    0.4090 C.ar    1  UNL1       -0.0492
      4 C           5.7840    1.0470    0.8070 C.ar    1  UNL1       -0.0463
      5 C           5.8480   -0.3460    0.9320 C.ar    1  UNL1        0.0718
      6 C           7.0480   -1.0050    0.6740 C.ar    1  UNL1        0.1360
      7 F           7.1380   -2.3390    0.7670 F       1  UNL1       -0.2047
      8 C           9.3320    1.8780   -0.3060 C.3     1  UNL1        0.4175
      9 F           9.3400    2.0840   -1.6510 F       1  UNL1       -0.1659
     10 F           9.4180    3.1110    0.2650 F       1  UNL1       -0.1659
     11 F          10.5050    1.2510   -0.0150 F       1  UNL1       -0.1659
     12 C           4.6630   -1.1180    1.3610 C.2     1  UNL1        0.2471
     13 N           3.4700   -0.7180    0.7930 N.am    1  UNL1       -0.3070
     14 O           4.7730   -2.0320    2.1680 O.2     1  UNL1       -0.2701
     15 C           2.2130   -1.3300    1.1810 C.3     1  UNL1        0.0406
     16 C           1.0160   -0.5810    0.6390 C.ar    1  UNL1        0.0119
     17 C          -0.1000   -1.2640    0.1210 C.ar    1  UNL1        0.1252
     18 C          -1.1940   -0.5360   -0.3600 C.ar    1  UNL1       -0.0190
     19 C          -1.1880    0.8640   -0.3270 C.ar    1  UNL1       -0.0506
     20 C          -0.0970    1.5660    0.1960 C.ar    1  UNL1       -0.0171
     21 C           0.9850    0.8280    0.6980 C.ar    1  UNL1       -0.0459
     22 O          -0.0260   -2.6320    0.1350 O.3     1  UNL1       -0.4916
     23 C          -1.1320   -3.3650   -0.3900 C.3     1  UNL1        0.0896
     24 C          -0.8030   -4.8510   -0.2700 C.3     1  UNL1       -0.0189
     25 C          -1.9330   -5.7250   -0.8080 C.3     1  UNL1       -0.0528
     26 C          -1.6010   -7.2030   -0.6870 C.3     1  UNL1       -0.0652
     27 C          -0.0730    3.0370    0.2160 C.ar    1  UNL1       -0.0149
     28 C           0.1080    3.8070   -0.9550 C.ar    1  UNL1       -0.0421
     29 C           0.1270    5.2130   -0.8660 C.ar    1  UNL1       -0.0494
     30 C          -0.0060    5.8780    0.3630 C.ar    1  UNL1       -0.0024
     31 C          -0.1770    5.1040    1.5170 C.ar    1  UNL1       -0.0523
     32 C          -0.2110    3.7080    1.4440 C.ar    1  UNL1       -0.0532
     33 C           0.0400    7.3900    0.4380 C.2     1  UNL1        0.0717
     34 O          -0.0620    7.9160    1.5910 O.co2   1  UNL1       -0.5446
     35 O           0.1740    8.0220   -0.6570 O.co2   1  UNL1       -0.5446
     36 C           0.2700    3.1700   -2.3090 C.3     1  UNL1       -0.0391
     37 H           9.0584   -0.7927    0.0787 H       1  UNL1        0.0652
     38 H           6.8593    2.7905    0.3075 H       1  UNL1        0.0623
     39 H           4.9020    1.5432    1.0089 H       1  UNL1        0.0626
     40 H           3.4722   -0.0057    0.1134 H       1  UNL1        0.1493
     41 H           2.1537   -1.3458    2.2492 H       1  UNL1        0.0513
     42 H           2.1916   -2.3188    0.7727 H       1  UNL1        0.0513
     43 H          -2.0123   -1.0351   -0.7424 H       1  UNL1        0.0654
     44 H          -1.9998    1.3851   -0.6937 H       1  UNL1        0.0625
     45 H           1.7806    1.3299    1.1224 H       1  UNL1        0.0628
     46 H          -1.2853   -3.1075   -1.4172 H       1  UNL1        0.0696
     47 H          -2.0255   -3.1341    0.1514 H       1  UNL1        0.0696
     48 H          -0.6419   -5.0883    0.7608 H       1  UNL1        0.0298
     49 H           0.0746   -5.0461   -0.8502 H       1  UNL1        0.0298
     50 H          -2.0946   -5.4884   -1.8389 H       1  UNL1        0.0264
     51 H          -2.8119   -5.5303   -0.2297 H       1  UNL1        0.0264
     52 H          -0.7232   -7.4194   -1.2593 H       1  UNL1        0.0230
     53 H          -2.4200   -7.7840   -1.0567 H       1  UNL1        0.0230
     54 H          -1.4261   -7.4463    0.3402 H       1  UNL1        0.0230
     55 H           0.2418    5.7690   -1.7278 H       1  UNL1        0.0627
     56 H          -0.2792    5.5693    2.4325 H       1  UNL1        0.0624
     57 H          -0.3399    3.1593    2.3085 H       1  UNL1        0.0624
     58 H           0.2339    2.1053   -2.2089 H       1  UNL1        0.0278
     59 H           1.2118    3.4571   -2.7279 H       1  UNL1        0.0278
     60 H          -0.5205    3.4947   -2.9528 H       1  UNL1        0.0278
@<TRIPOS>UNITY_ATOM_ATTR
34 1
charge -1
@<TRIPOS>BOND
     1     1     2   ar
     2     1     6   ar
     3     2     3   ar
     4     2     8    1
     5     3     4   ar
     6     4     5   ar
     7     5     6   ar
     8     5    12    1
     9     6     7    1
    10     8     9    1
    11     8    10    1
    12     8    11    1
    13    12    13   am
    14    12    14    2
    15    13    15    1
    16    15    16    1
    17    16    17   ar
    18    16    21   ar
    19    17    18   ar
    20    17    22    1
    21    18    19   ar
    22    19    20   ar
    23    20    21   ar
    24    20    27    1
    25    22    23    1
    26    23    24    1
    27    24    25    1
    28    25    26    1
    29    27    28   ar
    30    27    32   ar
    31    28    29   ar
    32    28    36    1
    33    29    30   ar
    34    30    31   ar
    35    30    33    1
    36    31    32   ar
    37    33    34   ar
    38    33    35   ar
    39     1    37    1
    40     3    38    1
    41     4    39    1
    42    13    40    1
    43    15    41    1
    44    15    42    1
    45    18    43    1
    46    19    44    1
    47    21    45    1
    48    23    46    1
    49    23    47    1
    50    24    48    1
    51    24    49    1
    52    25    50    1
    53    25    51    1
    54    26    52    1
    55    26    53    1
    56    26    54    1
    57    29    55    1
    58    31    56    1
    59    32    57    1
    60    36    58    1
    61    36    59    1
    62    36    60    1
@<TRIPOS>MOLECULE
BDB50184274
 53 55 0 0 0
SMALL
GASTEIGER

@<TRIPOS>ATOM
      1 C           5.1170   -9.5400    0.1880 C.ar    1  UNL1       -0.0565
      2 C           4.1000  -10.3160   -0.3710 C.ar    1  UNL1       -0.0418
      3 C           2.8940   -9.6960   -0.7080 C.ar    1  UNL1       -0.0565
      4 C           2.7190   -8.3210   -0.5120 C.ar    1  UNL1       -0.0406
      5 C           3.7360   -7.5280    0.0330 C.ar    1  UNL1        0.0271
      6 C           4.9350   -8.1650    0.3820 C.ar    1  UNL1       -0.0406
      7 N           3.6130   -6.1650    0.2450 N.pl3   1  UNL1       -0.3437
      8 C           4.2880  -11.7960   -0.5770 C.3     1  UNL1        0.0120
      9 C           3.8540  -12.5780    0.6610 C.2     1  UNL1        0.0460
     10 O           4.7660  -12.7950    1.5100 O.co2   1  UNL1       -0.5495
     11 O           2.6430  -12.9450    0.6690 O.co2   1  UNL1       -0.5495
     12 C           2.4220   -5.4030   -0.0720 C.3     1  UNL1        0.0122
     13 C           2.6340   -3.9360    0.2860 C.3     1  UNL1       -0.0031
     14 C           1.3990   -3.1000   -0.0370 C.3     1  UNL1        0.0910
     15 O           1.6830   -1.7500    0.3240 O.3     1  UNL1       -0.4915
     16 C           0.7270   -0.8000    0.0600 C.ar    1  UNL1        0.1273
     17 C           1.1100    0.5290    0.3530 C.ar    1  UNL1        0.0397
     18 C          -1.4770   -0.0720   -0.7150 C.ar    1  UNL1       -0.0454
     19 C          -0.5450   -1.0880   -0.4570 C.ar    1  UNL1       -0.0188
     20 C           2.4720    0.8750    0.8980 C.3     1  UNL1       -0.0209
     21 C           3.5090    1.0150   -0.2180 C.3     1  UNL1       -0.0517
     22 C           4.8780    1.3720    0.3380 C.3     1  UNL1       -0.0650
     23 C          -1.1120    1.2550   -0.4470 C.ar    1  UNL1        0.0536
     24 C           0.1460    1.5050    0.0680 C.ar    1  UNL1        0.1744
     25 O           0.2920    2.8460    0.2480 O.2     1  UNL1       -0.3537
     26 N          -0.8640    3.4990   -0.1380 N.ar    1  UNL1       -0.0730
     27 C          -1.7060    2.5410   -0.5570 C.ar    1  UNL1        0.1934
     28 C          -3.0620    2.8870   -1.0490 C.3     1  UNL1        0.4380
     29 F          -3.0340    3.8280   -2.0290 F       1  UNL1       -0.1643
     30 F          -3.8570    3.3710   -0.0590 F       1  UNL1       -0.1643
     31 F          -3.7140    1.8130   -1.5710 F       1  UNL1       -0.1643
     32 H           6.0088   -9.9825    0.4601 H       1  UNL1        0.0621
     33 H           2.1246  -10.2574   -1.1054 H       1  UNL1        0.0621
     34 H           1.8222   -7.8830   -0.7745 H       1  UNL1        0.0636
     35 H           5.7012   -7.6079    0.7913 H       1  UNL1        0.0636
     36 H           4.3799   -5.6856    0.6340 H       1  UNL1        0.1461
     37 H           5.3212  -11.9941   -0.7721 H       1  UNL1        0.0373
     38 H           3.6853  -12.1052   -1.4053 H       1  UNL1        0.0373
     39 H           1.5949   -5.7886    0.4867 H       1  UNL1        0.0462
     40 H           2.2201   -5.4844   -1.1196 H       1  UNL1        0.0462
     41 H           3.4656   -3.5583   -0.2714 H       1  UNL1        0.0313
     42 H           2.8201   -3.8695    1.3376 H       1  UNL1        0.0313
     43 H           0.5600   -3.4580    0.5223 H       1  UNL1        0.0697
     44 H           1.1624   -3.1677   -1.0783 H       1  UNL1        0.0697
     45 H          -2.4105   -0.2962   -1.0936 H       1  UNL1        0.0626
     46 H          -0.8005   -2.0687   -0.6517 H       1  UNL1        0.0654
     47 H           2.7848    0.1007    1.5669 H       1  UNL1        0.0315
     48 H           2.3995    1.8141    1.4057 H       1  UNL1        0.0315
     49 H           3.1947    1.7856   -0.8905 H       1  UNL1        0.0266
     50 H           3.5862    0.0761   -0.7254 H       1  UNL1        0.0266
     51 H           4.8215    2.3097    0.8502 H       1  UNL1        0.0230
     52 H           5.5809    1.4461   -0.4653 H       1  UNL1        0.0230
     53 H           5.1952    0.6114    1.0205 H       1  UNL1        0.0230
@<TRIPOS>UNITY_ATOM_ATTR
10 1
charge -1
@<TRIPOS>BOND
     1     1     2   ar
     2     1     6   ar
     3     2     3   ar
     4     2     8    1
     5     3     4   ar
     6     4     5   ar
     7     5     6   ar
     8     5     7    1
     9     7    12    1
    10     8     9    1
    11     9    10   ar
    12     9    11   ar
    13    12    13    1
    14    13    14    1
    15    14    15    1
    16    15    16    1
    17    16    17   ar
    18    16    19   ar
    19    17    20    1
    20    17    24   ar
    21    18    19   ar
    22    18    23   ar
    23    20    21    1
    24    21    22    1
    25    23    24   ar
    26    23    27   ar
    27    24    25   ar
    28    25    26   ar
    29    26    27   ar
    30    27    28    1
    31    28    29    1
    32    28    30    1
    33    28    31    1
    34     1    32    1
    35     3    33    1
    36     4    34    1
    37     6    35    1
    38     7    36    1
    39     8    37    1
    40     8    38    1
    41    12    39    1
    42    12    40    1
    43    13    41    1
    44    13    42    1
    45    14    43    1
    46    14    44    1
    47    18    45    1
    48    19    46    1
    49    20    47    1
    50    20    48    1
    51    21    49    1
    52    21    50    1
    53    22    51    1
    54    22    52    1
    55    22    53    1
@<TRIPOS>MOLECULE
BDB50277974
 60 64 0 0 0
SMALL
GASTEIGER

@<TRIPOS>ATOM
      1 C           0.3330   -8.5930    0.6150 C.ar    1  UNL1       -0.0495
      2 C          -0.1830   -9.8790    0.4270 C.ar    1  UNL1       -0.0610
      3 C           0.4180  -10.7440   -0.4850 C.ar    1  UNL1       -0.0617
      4 C           1.5310  -10.3240   -1.2100 C.ar    1  UNL1       -0.0610
      5 C           2.0470   -9.0380   -1.0230 C.ar    1  UNL1       -0.0495
      6 C           1.4540   -8.1560   -0.1070 C.ar    1  UNL1        0.0369
      7 C           1.9710   -6.8090    0.1140 C.ar    1  UNL1        0.2276
      8 N           1.5750   -5.8970    0.9840 N.ar    1  UNL1       -0.2136
      9 C           2.4020   -4.8230    0.7520 C.ar    1  UNL1        0.0860
     10 C           3.2730   -5.1270   -0.2740 C.ar    1  UNL1        0.1258
     11 O           3.0090   -6.4030   -0.6840 O.2     1  UNL1       -0.4402
     12 C           4.3580   -4.4130   -0.9660 C.3     1  UNL1       -0.0045
     13 C           2.2800   -3.5810    1.5510 C.3     1  UNL1        0.0272
     14 C           1.2090   -2.6420    1.0090 C.3     1  UNL1        0.0951
     15 O           1.2330   -1.4440    1.8010 O.3     1  UNL1       -0.4910
     16 C           0.4520   -0.4790    1.1960 C.ar    1  UNL1        0.1287
     17 C          -1.2160    1.4580    0.0050 C.ar    1  UNL1       -0.0301
     18 C          -1.7030    0.5600    0.9780 C.ar    1  UNL1       -0.0539
     19 C          -0.8870   -0.3930    1.5680 C.ar    1  UNL1       -0.0190
     20 C          -2.1850    2.4420   -0.6300 C.3     1  UNL1        0.0051
     21 C          -3.2930    1.8320   -1.5030 C.3     1  UNL1        0.1017
     22 C          -2.6810    0.8650   -2.5490 C.2     1  UNL1        0.0707
     23 O          -4.2890    1.2190   -0.6540 O.3     1  UNL1       -0.3702
     24 O          -2.8000   -0.3750   -2.3390 O.co2   1  UNL1       -0.5471
     25 O          -2.1420    1.4560   -3.5350 O.co2   1  UNL1       -0.5471
     26 C          -5.5080    0.9400   -1.3440 C.3     1  UNL1        0.0513
     27 C           0.1680    1.3810   -0.3190 C.ar    1  UNL1        0.0261
     28 C           1.0150    0.4320    0.2690 C.ar    1  UNL1        0.0311
     29 C           2.3680    0.5570   -0.2050 C.ar    1  UNL1       -0.0435
     30 C           2.5230    1.5630   -1.1260 C.ar    1  UNL1       -0.0231
     31 S           1.0560    2.3670   -1.4350 S.2     1  UNL1       -0.0963
     32 C          -6.5140    0.3140   -0.4230 C.3     1  UNL1       -0.0175
     33 C          -6.5670    0.6470    1.0470 C.3     1  UNL1       -0.0478
     34 C          -6.1020   -0.7130    0.6010 C.3     1  UNL1       -0.0478
     35 H          -0.1161   -7.9576    1.2930 H       1  UNL1        0.0625
     36 H          -1.0088  -10.1873    0.9637 H       1  UNL1        0.0618
     37 H           0.0394  -11.6940   -0.6232 H       1  UNL1        0.0618
     38 H           1.9758  -10.9637   -1.8868 H       1  UNL1        0.0618
     39 H           2.8719   -8.7347   -1.5639 H       1  UNL1        0.0625
     40 H           4.4603   -3.4318   -0.5517 H       1  UNL1        0.0308
     41 H           4.1276   -4.3379   -2.0082 H       1  UNL1        0.0308
     42 H           5.2749   -4.9502   -0.8412 H       1  UNL1        0.0308
     43 H           3.2209   -3.0716    1.5395 H       1  UNL1        0.0362
     44 H           1.9960   -3.8597    2.5443 H       1  UNL1        0.0362
     45 H           0.2477   -3.1064    1.0807 H       1  UNL1        0.0700
     46 H           1.3979   -2.4139   -0.0192 H       1  UNL1        0.0700
     47 H          -2.6947    0.6140    1.2585 H       1  UNL1        0.0622
     48 H          -1.2700   -1.0353    2.2792 H       1  UNL1        0.0654
     49 H          -1.6172    3.1108   -1.2425 H       1  UNL1        0.0342
     50 H          -2.6899    2.9153    0.1860 H       1  UNL1        0.0342
     51 H          -3.7919    2.5934   -2.0654 H       1  UNL1        0.0661
     52 H          -5.3072    0.2680   -2.1521 H       1  UNL1        0.0563
     53 H          -5.9096    1.8602   -1.7139 H       1  UNL1        0.0563
     54 H           3.1415   -0.0470    0.1143 H       1  UNL1        0.0630
     55 H           3.4202    1.8024   -1.5762 H       1  UNL1        0.0694
     56 H          -7.2175    0.3475   -1.2285 H       1  UNL1        0.0323
     57 H          -7.5119    0.7550    1.5372 H       1  UNL1        0.0269
     58 H          -6.1591    1.4216    1.6622 H       1  UNL1        0.0269
     59 H          -5.0721   -0.9853    0.7008 H       1  UNL1        0.0269
     60 H          -6.3899   -1.7200    0.8202 H       1  UNL1        0.0269
@<TRIPOS>UNITY_ATOM_ATTR
24 1
charge -1
@<TRIPOS>BOND
     1     1     2   ar
     2     1     6   ar
     3     2     3   ar
     4     3     4   ar
     5     4     5   ar
     6     5     6   ar
     7     6     7    1
     8     7     8   ar
     9     7    11   ar
    10     8     9   ar
    11     9    10   ar
    12     9    13    1
    13    10    11   ar
    14    10    12    1
    15    13    14    1
    16    14    15    1
    17    15    16    1
    18    16    19   ar
    19    16    28   ar
    20    17    18   ar
    21    17    20    1
    22    17    27   ar
    23    18    19   ar
    24    20    21    1
    25    21    22    1
    26    21    23    1
    27    22    24   ar
    28    22    25   ar
    29    23    26    1
    30    26    32    1
    31    27    28   ar
    32    27    31   ar
    33    28    29   ar
    34    29    30   ar
    35    30    31   ar
    36    32    33    1
    37    32    34    1
    38    33    34    1
    39     1    35    1
    40     2    36    1
    41     3    37    1
    42     4    38    1
    43     5    39    1
    44    12    40    1
    45    12    41    1
    46    12    42    1
    47    13    43    1
    48    13    44    1
    49    14    45    1
    50    14    46    1
    51    18    47    1
    52    19    48    1
    53    20    49    1
    54    20    50    1
    55    21    51    1
    56    26    52    1
    57    26    53    1
    58    29    54    1
    59    30    55    1
    60    32    56    1
    61    33    57    1
    62    33    58    1
    63    34    59    1
    64    34    60    1
@<TRIPOS>MOLECULE
BDB50278067
 53 56 0 0 0
SMALL
GASTEIGER

@<TRIPOS>ATOM
      1 C           1.1410   -8.0730   -2.1040 C.ar    1  UNL1       -0.0495
      2 C           0.5500   -9.2500   -2.5700 C.ar    1  UNL1       -0.0610
      3 C           0.7800  -10.4550   -1.9090 C.ar    1  UNL1       -0.0617
      4 C           1.5990  -10.4820   -0.7820 C.ar    1  UNL1       -0.0610
      5 C           2.1900   -9.3040   -0.3150 C.ar    1  UNL1       -0.0495
      6 C           1.9690   -8.0830   -0.9710 C.ar    1  UNL1        0.0369
      7 C           2.5730   -6.8360   -0.5110 C.ar    1  UNL1        0.2276
      8 N           2.5020   -5.6310   -1.0440 N.ar    1  UNL1       -0.2136
      9 C           3.2500   -4.8420   -0.2010 C.ar    1  UNL1        0.0860
     10 C           3.7460   -5.6120    0.8300 C.ar    1  UNL1        0.1258
     11 O           3.3210   -6.8950    0.6370 O.2     1  UNL1       -0.4402
     12 C           4.5880   -5.3540    2.0100 C.3     1  UNL1       -0.0045
     13 C           3.4190   -3.3930   -0.4680 C.3     1  UNL1        0.0272
     14 C           2.1630   -2.5930   -0.1360 C.3     1  UNL1        0.0951
     15 O           2.4530   -1.2060   -0.3590 O.3     1  UNL1       -0.4905
     16 C           1.2870   -0.4710   -0.2770 C.ar    1  UNL1        0.1347
     17 C          -1.0660    1.0720   -0.0270 C.ar    1  UNL1       -0.0361
     18 C          -0.3230    0.6740    1.1050 C.ar    1  UNL1       -0.0544
     19 C           0.8390   -0.0740    0.9820 C.ar    1  UNL1       -0.0185
     20 C          -2.3330    1.8850    0.2060 C.3     1  UNL1        0.0046
     21 C          -3.5800    0.9950    0.3200 C.3     1  UNL1        0.1013
     22 C          -4.6590    1.6250    1.2400 C.2     1  UNL1        0.0707
     23 O          -4.1070    0.6490   -0.9850 O.3     1  UNL1       -0.3737
     24 O          -4.7170    2.8900    1.2350 O.co2   1  UNL1       -0.5471
     25 O          -5.3580    0.7990    1.8940 O.co2   1  UNL1       -0.5471
     26 C          -4.9110    1.6490   -1.5990 C.3     1  UNL1        0.0373
     27 C          -0.6030    0.6900   -1.3210 C.ar    1  UNL1       -0.0040
     28 C           0.5710   -0.0670   -1.4240 C.ar    1  UNL1        0.0612
     29 S           0.9630   -0.4050   -3.0730 S.2     1  UNL1       -0.0930
     30 C          -0.4080    0.4200   -3.6500 C.ar    1  UNL1       -0.0231
     31 C          -1.1530    0.9510   -2.6260 C.ar    1  UNL1       -0.0466
     32 H           0.9664   -7.1847   -2.5994 H       1  UNL1        0.0625
     33 H          -0.0572   -9.2270   -3.4042 H       1  UNL1        0.0618
     34 H           0.3449  -11.3252   -2.2533 H       1  UNL1        0.0618
     35 H           1.7698  -11.3735   -0.2909 H       1  UNL1        0.0618
     36 H           2.7949   -9.3326    0.5206 H       1  UNL1        0.0625
     37 H           4.8492   -4.3169    2.0419 H       1  UNL1        0.0308
     38 H           5.4783   -5.9444    1.9488 H       1  UNL1        0.0308
     39 H           4.0483   -5.6133    2.8968 H       1  UNL1        0.0308
     40 H           3.6488   -3.2585   -1.5044 H       1  UNL1        0.0362
     41 H           4.2101   -3.0349    0.1572 H       1  UNL1        0.0362
     42 H           1.8930   -2.7481    0.8877 H       1  UNL1        0.0700
     43 H           1.3467   -2.9073   -0.7523 H       1  UNL1        0.0700
     44 H          -0.6513    0.9454    2.0450 H       1  UNL1        0.0622
     45 H           1.3732   -0.3372    1.8249 H       1  UNL1        0.0654
     46 H          -2.4650    2.5600   -0.6136 H       1  UNL1        0.0342
     47 H          -2.2199    2.4124    1.1301 H       1  UNL1        0.0342
     48 H          -3.2773    0.0812    0.7872 H       1  UNL1        0.0661
     49 H          -5.2494    1.2992   -2.5519 H       1  UNL1        0.0524
     50 H          -4.3333    2.5400   -1.7307 H       1  UNL1        0.0524
     51 H          -5.7551    1.8600   -0.9762 H       1  UNL1        0.0524
     52 H          -0.6506    0.5105   -4.6490 H       1  UNL1        0.0694
     53 H          -2.0229    1.4854   -2.7770 H       1  UNL1        0.0629
@<TRIPOS>UNITY_ATOM_ATTR
24 1
charge -1
@<TRIPOS>BOND
     1     1     2   ar
     2     1     6   ar
     3     2     3   ar
     4     3     4   ar
     5     4     5   ar
     6     5     6   ar
     7     6     7    1
     8     7     8   ar
     9     7    11   ar
    10     8     9   ar
    11     9    10   ar
    12     9    13    1
    13    10    11   ar
    14    10    12    1
    15    13    14    1
    16    14    15    1
    17    15    16    1
    18    16    19   ar
    19    16    28   ar
    20    17    18   ar
    21    17    20    1
    22    17    27   ar
    23    18    19   ar
    24    20    21    1
    25    21    22    1
    26    21    23    1
    27    22    24   ar
    28    22    25   ar
    29    23    26    1
    30    27    28   ar
    31    27    31   ar
    32    28    29   ar
    33    29    30   ar
    34    30    31   ar
    35     1    32    1
    36     2    33    1
    37     3    34    1
    38     4    35    1
    39     5    36    1
    40    12    37    1
    41    12    38    1
    42    12    39    1
    43    13    40    1
    44    13    41    1
    45    14    42    1
    46    14    43    1
    47    18    44    1
    48    19    45    1
    49    20    46    1
    50    20    47    1
    51    21    48    1
    52    26    49    1
    53    26    50    1
    54    26    51    1
    55    30    52    1
    56    31    53    1
@<TRIPOS>MOLECULE
BDB50194625
 62 64 0 0 0
SMALL
GASTEIGER

@<TRIPOS>ATOM
      1 C           0.7610   -0.3880    0.6860 C.ar    1  UNL1        0.0264
      2 C          -0.3460   -1.0110    0.1000 C.ar    1  UNL1        0.1337
      3 C          -1.0810   -0.3230   -0.8680 C.ar    1  UNL1       -0.0159
      4 C          -0.7320    0.9860   -1.2200 C.ar    1  UNL1       -0.0128
      5 C           0.3340    1.6270   -0.5910 C.ar    1  UNL1        0.1631
      6 C           1.1170    0.9130    0.3180 C.ar    1  UNL1        0.1733
      7 O           0.6880    2.8890   -0.9800 O.3     1  UNL1       -0.4853
      8 C           0.0120    3.9800   -0.3150 C.3     1  UNL1        0.1007
      9 C          -1.4840    4.0540   -0.6560 C.3     1  UNL1        0.0182
     10 C          -2.1440    5.3690   -0.2460 C.3     1  UNL1        0.0929
     11 O          -3.4990    5.3330   -0.6990 O.3     1  UNL1       -0.4918
     12 C          -4.2660    6.4410   -0.4520 C.ar    1  UNL1        0.1208
     13 C          -5.5740    6.3720   -0.9340 C.ar    1  UNL1       -0.0168
     14 C          -6.4820    7.4330   -0.7570 C.ar    1  UNL1       -0.0438
     15 C          -6.0700    8.6010   -0.0760 C.ar    1  UNL1       -0.0439
     16 C          -4.7510    8.6560    0.4030 C.ar    1  UNL1       -0.0549
     17 C          -3.8590    7.5910    0.2190 C.ar    1  UNL1       -0.0197
     18 O          -0.5880   -2.2780    0.5500 O.3     1  UNL1       -0.4056
     19 O           2.1970    1.5200    0.9120 O.3     1  UNL1       -0.4522
     20 C           3.4540    1.0590    0.5840 C.ar    1  UNL1        0.1286
     21 C           4.4450    1.2750    1.5460 C.ar    1  UNL1       -0.0193
     22 C           5.7620    0.8830    1.3000 C.ar    1  UNL1       -0.0583
     23 C           6.0920    0.2800    0.0870 C.ar    1  UNL1       -0.0615
     24 C           5.1070    0.0730   -0.8800 C.ar    1  UNL1       -0.0583
     25 C           3.7900    0.4680   -0.6370 C.ar    1  UNL1       -0.0193
     26 C          -7.0490    9.7510    0.1170 C.3     1  UNL1       -0.0223
     27 C          -6.5460   10.9890    0.8590 C.3     1  UNL1       -0.0092
     28 C           0.3020    4.0350    1.1860 C.3     1  UNL1       -0.0277
     29 C          -7.8780    7.2910   -1.3030 C.3     1  UNL1       -0.0393
     30 C          -7.5950   12.0960    1.0080 C.2     1  UNL1        0.0421
     31 O          -8.7320   11.8670    0.5130 O.co2   1  UNL1       -0.5498
     32 O          -7.1800   13.1220    1.6220 O.co2   1  UNL1       -0.5498
     33 C          -1.7420   -2.9430    0.0610 C.3     1  UNL1        0.5752
     34 F          -1.8370   -4.1480    0.6660 F       1  UNL1       -0.1328
     35 F          -2.8640   -2.2450    0.3400 F       1  UNL1       -0.1328
     36 F          -1.6560   -3.1470   -1.2700 F       1  UNL1       -0.1328
     37 H           1.3180   -0.8916    1.3939 H       1  UNL1        0.0692
     38 H          -1.8845   -0.7815   -1.3255 H       1  UNL1        0.0655
     39 H          -1.2678    1.4801   -1.9506 H       1  UNL1        0.0656
     40 H           0.4357    4.8773   -0.7153 H       1  UNL1        0.0731
     41 H          -1.9850    3.2535   -0.1528 H       1  UNL1        0.0334
     42 H          -1.5655    3.9823   -1.7205 H       1  UNL1        0.0334
     43 H          -1.6301    6.1915   -0.6980 H       1  UNL1        0.0698
     44 H          -2.1064    5.4928    0.8161 H       1  UNL1        0.0698
     45 H          -5.8829    5.5226   -1.4322 H       1  UNL1        0.0657
     46 H          -4.4311    9.5006    0.9023 H       1  UNL1        0.0621
     47 H          -2.8956    7.6595    0.5827 H       1  UNL1        0.0654
     48 H           4.2019    1.7261    2.4418 H       1  UNL1        0.0654
     49 H           6.4900    1.0392    2.0146 H       1  UNL1        0.0619
     50 H           7.0644   -0.0132   -0.0959 H       1  UNL1        0.0618
     51 H           5.3529   -0.3734   -1.7774 H       1  UNL1        0.0619
     52 H           3.0658    0.3237   -1.3580 H       1  UNL1        0.0654
     53 H          -7.8878    9.3699    0.6612 H       1  UNL1        0.0317
     54 H          -7.2638   10.0952   -0.8731 H       1  UNL1        0.0317
     55 H          -5.7109   11.3871    0.3215 H       1  UNL1        0.0328
     56 H          -6.2871   10.6730    1.8479 H       1  UNL1        0.0328
     57 H          -0.0961    3.1614    1.6584 H       1  UNL1        0.0265
     58 H          -0.1546    4.9069    1.6058 H       1  UNL1        0.0265
     59 H           1.3596    4.0752    1.3437 H       1  UNL1        0.0265
     60 H          -7.9799    6.3377   -1.7781 H       1  UNL1        0.0278
     61 H          -8.0625    8.0667   -2.0165 H       1  UNL1        0.0278
     62 H          -8.5837    7.3677   -0.5023 H       1  UNL1        0.0278
@<TRIPOS>UNITY_ATOM_ATTR
31 1
charge -1
@<TRIPOS>BOND
     1     1     2   ar
     2     1     6   ar
     3     2     3   ar
     4     2    18    1
     5     3     4   ar
     6     4     5   ar
     7     5     6   ar
     8     5     7    1
     9     6    19    1
    10     7     8    1
    11     8     9    1
    12     8    28    1
    13     9    10    1
    14    10    11    1
    15    11    12    1
    16    12    13   ar
    17    12    17   ar
    18    13    14   ar
    19    14    15   ar
    20    14    29    1
    21    15    16   ar
    22    15    26    1
    23    16    17   ar
    24    18    33    1
    25    19    20    1
    26    20    21   ar
    27    20    25   ar
    28    21    22   ar
    29    22    23   ar
    30    23    24   ar
    31    24    25   ar
    32    26    27    1
    33    27    30    1
    34    30    31   ar
    35    30    32   ar
    36    33    34    1
    37    33    35    1
    38    33    36    1
    39     1    37    1
    40     3    38    1
    41     4    39    1
    42     8    40    1
    43     9    41    1
    44     9    42    1
    45    10    43    1
    46    10    44    1
    47    13    45    1
    48    16    46    1
    49    17    47    1
    50    21    48    1
    51    22    49    1
    52    23    50    1
    53    24    51    1
    54    25    52    1
    55    26    53    1
    56    26    54    1
    57    27    55    1
    58    27    56    1
    59    28    57    1
    60    28    58    1
    61    28    59    1
    62    29    60    1
    63    29    61    1
    64    29    62    1
@<TRIPOS>MOLECULE
BDB50200411
 66 69 0 0 0
SMALL
GASTEIGER

@<TRIPOS>ATOM
      1 C          10.0170    4.6340   -2.7700 C.ar    1  UNL1       -0.0579
      2 C           8.9820    5.4210   -2.2580 C.ar    1  UNL1       -0.0476
      3 C           8.0290    4.8230   -1.4280 C.ar    1  UNL1       -0.0579
      4 C           8.1210    3.4650   -1.1050 C.ar    1  UNL1       -0.0508
      5 C           9.1600    2.6570   -1.6030 C.ar    1  UNL1        0.0192
      6 C          10.1020    3.2750   -2.4460 C.ar    1  UNL1       -0.0508
      7 C           9.2550    1.2260   -1.2590 C.ar    1  UNL1        0.1617
      8 N           8.4190    0.7500   -0.3170 N.ar    1  UNL1       -0.2124
      9 C           8.4890   -0.5530    0.0490 C.ar    1  UNL1        0.1278
     10 C           9.3830   -1.4020   -0.6020 C.ar    1  UNL1        0.0076
     11 C          10.2060   -0.8120   -1.5520 C.ar    1  UNL1        0.0361
     12 N          10.1730    0.4850   -1.8940 N.ar    1  UNL1       -0.2353
     13 C           9.4970   -2.8790   -0.3900 C.3     1  UNL1       -0.0350
     14 N           7.6450   -0.9410    1.0760 N.pl3   1  UNL1       -0.3178
     15 C           7.9780   -1.9710    2.0420 C.3     1  UNL1        0.0020
     16 C           6.3490   -0.2720    1.2070 C.3     1  UNL1        0.0163
     17 C           5.3090   -0.9610    0.3280 C.3     1  UNL1       -0.0028
     18 C           3.9480   -0.2900    0.4690 C.3     1  UNL1        0.0910
     19 O           3.0090   -1.0110   -0.3280 O.3     1  UNL1       -0.4919
     20 C           1.7470   -0.4820   -0.4090 C.ar    1  UNL1        0.1208
     21 C           1.2780    0.6160    0.3180 C.ar    1  UNL1       -0.0165
     22 C          -0.4150   -0.6920   -1.5270 C.ar    1  UNL1       -0.0546
     23 C           0.8950   -1.1340   -1.3190 C.ar    1  UNL1       -0.0197
     24 C          -0.8640    0.4010   -0.8050 C.ar    1  UNL1       -0.0405
     25 C          -0.0270    1.0400    0.1140 C.ar    1  UNL1       -0.0404
     26 C          -0.7020    2.2210    0.7350 C.3     1  UNL1       -0.0267
     27 C          -2.1740    1.9600    0.3820 C.3     1  UNL1       -0.0419
     28 C          -2.2050    1.0750   -0.8840 C.3     1  UNL1       -0.0102
     29 C          -2.4630    1.8170   -2.1930 C.3     1  UNL1       -0.0064
     30 C          -1.4450    2.8940   -2.5680 C.2     1  UNL1        0.0423
     31 O          -0.6430    2.5790   -3.4910 O.co2   1  UNL1       -0.5498
     32 O          -1.5470    3.9780   -1.9280 O.co2   1  UNL1       -0.5498
     33 C           8.8760    6.8790   -2.6200 C.3     1  UNL1       -0.0305
     34 C           8.0480    7.0920   -3.8780 C.3     1  UNL1       -0.0613
     35 H          10.7236    5.0578   -3.3914 H       1  UNL1        0.0620
     36 H           7.2519    5.3876   -1.0508 H       1  UNL1        0.0620
     37 H           7.4095    3.0454   -0.4863 H       1  UNL1        0.0625
     38 H          10.8747    2.7123   -2.8350 H       1  UNL1        0.0625
     39 H          10.8934   -1.4153   -2.0301 H       1  UNL1        0.0834
     40 H           8.8052   -3.1851    0.3667 H       1  UNL1        0.0279
     41 H          10.4929   -3.1192   -0.0811 H       1  UNL1        0.0279
     42 H           9.2744   -3.3888   -1.3041 H       1  UNL1        0.0279
     43 H           8.9475   -2.3665    1.8217 H       1  UNL1        0.0428
     44 H           7.2526   -2.7559    1.9909 H       1  UNL1        0.0428
     45 H           7.9795   -1.5502    3.0258 H       1  UNL1        0.0428
     46 H           6.4465    0.7497    0.9045 H       1  UNL1        0.0465
     47 H           6.0318   -0.3221    2.2277 H       1  UNL1        0.0465
     48 H           5.2261   -1.9866    0.6216 H       1  UNL1        0.0313
     49 H           5.6219   -0.8888   -0.6927 H       1  UNL1        0.0313
     50 H           4.0073    0.7233    0.1306 H       1  UNL1        0.0697
     51 H           3.6402   -0.2916    1.4938 H       1  UNL1        0.0697
     52 H           1.8900    1.1012    0.9926 H       1  UNL1        0.0657
     53 H          -1.0326   -1.1689   -2.2024 H       1  UNL1        0.0622
     54 H           1.2430   -1.9527   -1.8421 H       1  UNL1        0.0654
     55 H          -0.3550    3.1382    0.3069 H       1  UNL1        0.0313
     56 H          -0.5187    2.3239    1.7842 H       1  UNL1        0.0313
     57 H          -2.6725    2.8872    0.1905 H       1  UNL1        0.0274
     58 H          -2.6723    1.4709    1.1928 H       1  UNL1        0.0274
     59 H          -3.0318    0.3960   -0.9002 H       1  UNL1        0.0352
     60 H          -3.4222    2.2854   -2.1196 H       1  UNL1        0.0331
     61 H          -2.3935    1.0760   -2.9617 H       1  UNL1        0.0331
     62 H           9.8596    7.2673   -2.7833 H       1  UNL1        0.0311
     63 H           8.3901    7.3867   -1.8131 H       1  UNL1        0.0311
     64 H           8.5148    6.5924   -4.7011 H       1  UNL1        0.0233
     65 H           7.9810    8.1391   -4.0879 H       1  UNL1        0.0233
     66 H           7.0657    6.6943   -3.7301 H       1  UNL1        0.0233
@<TRIPOS>UNITY_ATOM_ATTR
32 1
charge -1
@<TRIPOS>BOND
     1     1     2   ar
     2     1     6   ar
     3     2     3   ar
     4     2    33    1
     5     3     4   ar
     6     4     5   ar
     7     5     6   ar
     8     5     7    1
     9     7     8   ar
    10     7    12   ar
    11     8     9   ar
    12     9    10   ar
    13     9    14    1
    14    10    11   ar
    15    10    13    1
    16    11    12   ar
    17    14    15    1
    18    14    16    1
    19    16    17    1
    20    17    18    1
    21    18    19    1
    22    19    20    1
    23    20    21   ar
    24    20    23   ar
    25    21    25   ar
    26    22    23   ar
    27    22    24   ar
    28    24    25   ar
    29    24    28    1
    30    25    26    1
    31    26    27    1
    32    27    28    1
    33    28    29    1
    34    29    30    1
    35    30    31   ar
    36    30    32   ar
    37    33    34    1
    38     1    35    1
    39     3    36    1
    40     4    37    1
    41     6    38    1
    42    11    39    1
    43    13    40    1
    44    13    41    1
    45    13    42    1
    46    15    43    1
    47    15    44    1
    48    15    45    1
    49    16    46    1
    50    16    47    1
    51    17    48    1
    52    17    49    1
    53    18    50    1
    54    18    51    1
    55    21    52    1
    56    22    53    1
    57    23    54    1
    58    26    55    1
    59    26    56    1
    60    27    57    1
    61    27    58    1
    62    28    59    1
    63    29    60    1
    64    29    61    1
    65    33    62    1
    66    33    63    1
    67    34    64    1
    68    34    65    1
    69    34    66    1
@<TRIPOS>MOLECULE
BDB50181911
 69 73 0 0 0
SMALL
GASTEIGER

@<TRIPOS>ATOM
      1 C         -10.8480   -0.4780    0.5010 C.ar    1  UNL1        0.1212
      2 C         -11.9610    0.2410    0.0650 C.ar    1  UNL1       -0.0180
      3 C         -13.2630   -0.2240    0.2780 C.ar    1  UNL1       -0.0341
      4 C         -11.0220   -1.6940    1.1730 C.ar    1  UNL1       -0.0108
      5 C         -12.3260   -2.1860    1.3990 C.ar    1  UNL1        0.0033
      6 C         -13.4210   -1.4440    0.9500 C.ar    1  UNL1        0.0496
      7 N         -14.5560   -2.1510    1.2970 N.ar    1  UNL1       -0.3411
      8 C         -14.2080   -3.3120    1.9400 C.ar    1  UNL1        0.0061
      9 C         -12.8360   -3.3580    2.0220 C.ar    1  UNL1       -0.0363
     10 C         -15.9240   -1.7330    1.0470 C.3     1  UNL1        0.0626
     11 C         -16.2880   -1.9410   -0.4120 C.2     1  UNL1        0.0614
     12 O         -16.5130   -3.1360   -0.7540 O.co2   1  UNL1       -0.5480
     13 O         -16.3650   -0.8830   -1.1020 O.co2   1  UNL1       -0.5480
     14 O          -4.8860    0.2990   -0.0350 O.3     1  UNL1       -0.4916
     15 C          -5.9540   -0.5270    0.4250 C.3     1  UNL1        0.0927
     16 C          -7.2620    0.1820    0.0990 C.3     1  UNL1        0.0157
     17 C          -8.4700   -0.6260    0.5560 C.3     1  UNL1        0.0927
     18 O          -9.6430    0.1080    0.2120 O.3     1  UNL1       -0.4918
     19 C          -3.5970   -0.1360    0.1100 C.ar    1  UNL1        0.1242
     20 C           6.3790    0.0980   -0.0260 C.ar    1  UNL1       -0.0611
     21 C           6.2950    1.2730    0.7210 C.ar    1  UNL1       -0.0617
     22 C           5.0860    1.6420    1.3110 C.ar    1  UNL1       -0.0611
     23 C           3.9540    0.8410    1.1500 C.ar    1  UNL1       -0.0509
     24 C           4.0320   -0.3280    0.3840 C.ar    1  UNL1        0.0223
     25 C           5.2510   -0.7070   -0.1900 C.ar    1  UNL1       -0.0509
     26 C           2.8600   -1.2170    0.2000 C.2     1  UNL1        0.1932
     27 C           1.4870   -0.6780    0.0380 C.ar    1  UNL1        0.0228
     28 O           3.0310   -2.4330    0.1790 O.2     1  UNL1       -0.2867
     29 C           1.2390    0.5200   -0.6220 C.ar    1  UNL1       -0.0503
     30 C          -0.0780    0.9730   -0.7680 C.ar    1  UNL1       -0.0530
     31 C           0.4130   -1.4300    0.5190 C.ar    1  UNL1       -0.0432
     32 C          -0.9110   -0.9800    0.3730 C.ar    1  UNL1       -0.0167
     33 C          -1.1940    0.2480   -0.2760 C.ar    1  UNL1       -0.0112
     34 C          -2.5640    0.6810   -0.4070 C.ar    1  UNL1        0.0020
     35 C          -3.2790   -1.3410    0.7450 C.ar    1  UNL1       -0.0191
     36 C          -1.9570   -1.7550    0.8740 C.ar    1  UNL1       -0.0505
     37 C          -2.8110    2.0170   -1.1140 C.3     1  UNL1       -0.0239
     38 C          -4.2220    2.5890   -1.2840 C.3     1  UNL1       -0.0518
     39 C          -4.1910    3.9340   -2.0000 C.3     1  UNL1       -0.0650
     40 H         -11.8205    1.1375   -0.4265 H       1  UNL1        0.0655
     41 H         -14.0808    0.3138   -0.0490 H       1  UNL1        0.0639
     42 H         -10.2019   -2.2276    1.5012 H       1  UNL1        0.0661
     43 H         -14.8613   -4.0256    2.2991 H       1  UNL1        0.0809
     44 H         -12.2770   -4.1083    2.4574 H       1  UNL1        0.0639
     45 H         -16.0248   -0.6959    1.2902 H       1  UNL1        0.0553
     46 H         -16.5807   -2.3209    1.6536 H       1  UNL1        0.0553
     47 H          -5.8724   -0.6731    1.4818 H       1  UNL1        0.0697
     48 H          -5.9184   -1.4847   -0.0508 H       1  UNL1        0.0697
     49 H          -7.3228    0.3282   -0.9592 H       1  UNL1        0.0331
     50 H          -7.2718    1.1184    0.6166 H       1  UNL1        0.0331
     51 H          -8.4301   -0.7723    1.6152 H       1  UNL1        0.0697
     52 H          -8.4780   -1.5853    0.0822 H       1  UNL1        0.0697
     53 H           7.2755   -0.1760   -0.4575 H       1  UNL1        0.0618
     54 H           7.1285    1.8702    0.8374 H       1  UNL1        0.0618
     55 H           5.0283    2.5090    1.8677 H       1  UNL1        0.0618
     56 H           3.0623    1.1099    1.5944 H       1  UNL1        0.0625
     57 H           5.3156   -1.5814   -0.7343 H       1  UNL1        0.0625
     58 H           2.0224    1.0734   -1.0029 H       1  UNL1        0.0625
     59 H          -0.2433    1.8692   -1.2524 H       1  UNL1        0.0624
     60 H           0.5941   -2.3306    0.9892 H       1  UNL1        0.0631
     61 H          -4.0360   -1.9316    1.1234 H       1  UNL1        0.0654
     62 H          -1.7473   -2.6480    1.3470 H       1  UNL1        0.0625
     63 H          -2.4068    1.9152   -2.0995 H       1  UNL1        0.0314
     64 H          -2.3608    2.7172   -0.4418 H       1  UNL1        0.0314
     65 H          -4.6645    2.7182   -0.3184 H       1  UNL1        0.0266
     66 H          -4.7952    1.9050   -1.8743 H       1  UNL1        0.0266
     67 H          -3.6210    4.6321   -1.4232 H       1  UNL1        0.0230
     68 H          -5.1900    4.2992   -2.1164 H       1  UNL1        0.0230
     69 H          -3.7402    3.8151   -2.9631 H       1  UNL1        0.0230
@<TRIPOS>UNITY_ATOM_ATTR
13 1
charge -1
@<TRIPOS>BOND
     1     1     2   ar
     2     1     4   ar
     3     1    18    1
     4     2     3   ar
     5     3     6   ar
     6     4     5   ar
     7     5     6   ar
     8     5     9   ar
     9     6     7   ar
    10     7     8   ar
    11     7    10    1
    12     8     9   ar
    13    10    11    1
    14    11    12   ar
    15    11    13   ar
    16    14    15    1
    17    14    19    1
    18    15    16    1
    19    16    17    1
    20    17    18    1
    21    19    34   ar
    22    19    35   ar
    23    20    21   ar
    24    20    25   ar
    25    21    22   ar
    26    22    23   ar
    27    23    24   ar
    28    24    25   ar
    29    24    26    1
    30    26    27    1
    31    26    28    2
    32    27    29   ar
    33    27    31   ar
    34    29    30   ar
    35    30    33   ar
    36    31    32   ar
    37    32    33   ar
    38    32    36   ar
    39    33    34   ar
    40    34    37    1
    41    35    36   ar
    42    37    38    1
    43    38    39    1
    44     2    40    1
    45     3    41    1
    46     4    42    1
    47     8    43    1
    48     9    44    1
    49    10    45    1
    50    10    46    1
    51    15    47    1
    52    15    48    1
    53    16    49    1
    54    16    50    1
    55    17    51    1
    56    17    52    1
    57    20    53    1
    58    21    54    1
    59    22    55    1
    60    23    56    1
    61    25    57    1
    62    29    58    1
    63    30    59    1
    64    31    60    1
    65    35    61    1
    66    36    62    1
    67    37    63    1
    68    37    64    1
    69    38    65    1
    70    38    66    1
    71    39    67    1
    72    39    68    1
    73    39    69    1
@<TRIPOS>MOLECULE
BDB50227736
 61 63 0 0 0
SMALL
GASTEIGER

@<TRIPOS>ATOM
      1 C           0.6200   -1.1370   -0.7890 C.ar    1  UNL1       -0.0566
      2 C          -0.3850   -1.3520    0.1620 C.ar    1  UNL1       -0.0268
      3 C          -1.4080   -0.4050    0.2910 C.ar    1  UNL1       -0.0144
      4 C          -1.4240    0.7340   -0.5240 C.ar    1  UNL1        0.1316
      5 C          -0.3970    0.9710   -1.4480 C.ar    1  UNL1       -0.0082
      6 C           0.6170    0.0150   -1.5810 C.ar    1  UNL1       -0.0550
      7 O          -2.4200    1.6780   -0.3880 O.3     1  UNL1       -0.4557
      8 C          -3.7110    1.2280   -0.5580 C.ar    1  UNL1        0.1289
      9 C          -4.1010    0.4700   -1.6650 C.ar    1  UNL1       -0.0159
     10 C          -5.4300    0.0670   -1.7910 C.ar    1  UNL1       -0.0162
     11 C          -6.3610    0.4190   -0.8120 C.ar    1  UNL1        0.1249
     12 C          -5.9930    1.2320    0.2710 C.ar    1  UNL1       -0.0053
     13 C          -4.6520    1.6220    0.3960 C.ar    1  UNL1       -0.0130
     14 C          -6.9910    1.6370    1.3170 C.3     1  UNL1       -0.0361
     15 O          -7.6710    0.0650   -0.9610 O.3     1  UNL1       -0.4802
     16 C          -8.0390   -1.3040   -0.6580 C.3     1  UNL1        0.1438
     17 C          -9.3860   -1.2130    0.1510 C.2     1  UNL1        0.0845
     18 O         -10.4550   -1.3090   -0.5220 O.co2   1  UNL1       -0.5457
     19 C          -0.3890   -2.5950    1.0080 C.3     1  UNL1        0.0373
     20 C          -1.5000   -4.7840    1.1120 C.2     1  UNL1        0.2471
     21 C          -2.6020   -5.6120    0.5810 C.ar    1  UNL1        0.0718
     22 O          -0.7510   -5.2190    1.9780 O.2     1  UNL1       -0.2701
     23 C          -3.8730   -5.0650    0.3650 C.ar    1  UNL1       -0.0463
     24 C          -4.8970   -5.8660   -0.1480 C.ar    1  UNL1       -0.0492
     25 C          -4.6650   -7.2180   -0.4430 C.ar    1  UNL1        0.0576
     26 C          -3.3910   -7.7580   -0.2100 C.ar    1  UNL1       -0.0141
     27 C          -2.3730   -6.9570    0.3010 C.ar    1  UNL1        0.1360
     28 C          -7.0480   -2.1130    0.1970 C.3     1  UNL1       -0.0198
     29 C          -8.2850   -2.0300   -1.9850 C.3     1  UNL1       -0.0198
     30 F          -1.1630   -7.5050    0.4810 F       1  UNL1       -0.2047
     31 C          -5.7530   -8.0930   -1.0050 C.3     1  UNL1        0.4175
     32 F          -6.9460   -7.4580   -1.1580 F       1  UNL1       -0.1659
     33 F          -5.4310   -8.5920   -2.2310 F       1  UNL1       -0.1659
     34 F          -6.0000   -9.1770   -0.2180 F       1  UNL1       -0.1659
     35 C          -0.3950    2.2030   -2.3040 C.3     1  UNL1       -0.0362
     36 O          -9.2620   -1.0380    1.4010 O.co2   1  UNL1       -0.5457
     37 N          -1.3960   -3.5260    0.5570 N.am    1  UNL1       -0.3072
     38 H           1.3703   -1.8358   -0.9064 H       1  UNL1        0.0621
     39 H          -2.1539   -0.5468    0.9900 H       1  UNL1        0.0658
     40 H           1.3702    0.1622   -2.2710 H       1  UNL1        0.0621
     41 H          -3.4094    0.2098   -2.3854 H       1  UNL1        0.0655
     42 H          -5.7252   -0.4911   -2.6074 H       1  UNL1        0.0655
     43 H          -4.3588    2.2031    1.1969 H       1  UNL1        0.0658
     44 H          -7.9554    1.2530    1.0575 H       1  UNL1        0.0279
     45 H          -7.0355    2.7046    1.3731 H       1  UNL1        0.0279
     46 H          -6.6934    1.2421    2.2659 H       1  UNL1        0.0279
     47 H          -0.5912   -2.3260    2.0237 H       1  UNL1        0.0512
     48 H           0.5691   -3.0645    0.9276 H       1  UNL1        0.0512
     49 H          -4.0531   -4.0727    0.5841 H       1  UNL1        0.0626
     50 H          -5.8315   -5.4597   -0.3112 H       1  UNL1        0.0623
     51 H          -3.2079   -8.7521   -0.4180 H       1  UNL1        0.0652
     52 H          -6.8778   -1.6043    1.1228 H       1  UNL1        0.0272
     53 H          -6.1222   -2.2141   -0.3299 H       1  UNL1        0.0272
     54 H          -7.4549   -3.0831    0.3926 H       1  UNL1        0.0272
     55 H          -8.9743   -1.4658   -2.5778 H       1  UNL1        0.0272
     56 H          -8.6926   -3.0000   -1.7906 H       1  UNL1        0.0272
     57 H          -7.3599   -2.1311   -2.5131 H       1  UNL1        0.0272
     58 H          -1.2423    2.8089   -2.0591 H       1  UNL1        0.0279
     59 H          -0.4442    1.9210   -3.3350 H       1  UNL1        0.0279
     60 H           0.5029    2.7578   -2.1285 H       1  UNL1        0.0279
     61 H          -2.0180   -3.2586   -0.1578 H       1  UNL1        0.1493
@<TRIPOS>UNITY_ATOM_ATTR
36 1
charge -1
@<TRIPOS>BOND
     1     1     2   ar
     2     1     6   ar
     3     2     3   ar
     4     2    19    1
     5     3     4   ar
     6     4     5   ar
     7     4     7    1
     8     5     6   ar
     9     5    35    1
    10     7     8    1
    11     8     9   ar
    12     8    13   ar
    13     9    10   ar
    14    10    11   ar
    15    11    12   ar
    16    11    15    1
    17    12    13   ar
    18    12    14    1
    19    15    16    1
    20    16    17    1
    21    16    28    1
    22    16    29    1
    23    17    18   ar
    24    17    36   ar
    25    19    37    1
    26    20    21    1
    27    20    22    2
    28    20    37   am
    29    21    23   ar
    30    21    27   ar
    31    23    24   ar
    32    24    25   ar
    33    25    26   ar
    34    25    31    1
    35    26    27   ar
    36    27    30    1
    37    31    32    1
    38    31    33    1
    39    31    34    1
    40     1    38    1
    41     3    39    1
    42     6    40    1
    43     9    41    1
    44    10    42    1
    45    13    43    1
    46    14    44    1
    47    14    45    1
    48    14    46    1
    49    19    47    1
    50    19    48    1
    51    23    49    1
    52    24    50    1
    53    26    51    1
    54    28    52    1
    55    28    53    1
    56    28    54    1
    57    29    55    1
    58    29    56    1
    59    29    57    1
    60    35    58    1
    61    35    59    1
    62    35    60    1
    63    37    61    1
@<TRIPOS>MOLECULE
BDB50293846
 63 66 0 0 0
SMALL
GASTEIGER

@<TRIPOS>ATOM
      1 C           1.2520    0.9110   -2.5820 C.ar    1  UNL1        0.1320
      2 C           0.1590    0.1130   -2.9150 C.ar    1  UNL1       -0.0189
      3 C          -0.9930    0.1060   -2.1230 C.ar    1  UNL1       -0.0484
      4 C           1.1960    1.7490   -1.4630 C.ar    1  UNL1        0.0045
      5 C           0.0330    1.7330   -0.6630 C.ar    1  UNL1        0.0537
      6 C          -1.0570    0.9170   -0.9700 C.ar    1  UNL1        0.0112
      7 C          -2.0570    1.1210    0.0330 C.ar    1  UNL1        0.0504
      8 C          -1.5270    2.0080    0.9660 C.ar    1  UNL1        0.0279
      9 N          -0.2890    2.4180    0.4980 N.ar    1  UNL1       -0.3389
     10 C          -2.0860    2.4680    2.2730 C.3     1  UNL1       -0.0235
     11 C           0.5870    3.3960    1.1480 C.3     1  UNL1        0.0487
     12 C          -0.0090    4.7780    1.2540 C.ar    1  UNL1       -0.0243
     13 C          -0.4410    5.4890    0.1220 C.ar    1  UNL1       -0.0150
     14 C          -0.9710    6.7750    0.2580 C.ar    1  UNL1        0.1222
     15 C          -1.0100    7.3890    1.5070 C.ar    1  UNL1       -0.0199
     16 C          -0.5770    6.6980    2.6350 C.ar    1  UNL1       -0.0580
     17 C          -0.0800    5.4020    2.5100 C.ar    1  UNL1       -0.0566
     18 O          -1.3320    7.4710   -0.8620 O.3     1  UNL1       -0.4802
     19 C          -2.7420    7.4660   -1.2110 C.3     1  UNL1        0.1463
     20 C          -2.8720    7.7990   -2.7450 C.2     1  UNL1        0.0847
     21 O          -3.9820    8.2920   -3.1080 O.co2   1  UNL1       -0.5457
     22 O          -1.8700    7.5210   -3.4680 O.co2   1  UNL1       -0.5457
     23 C          -3.3530    0.4490    0.0930 C.2     1  UNL1        0.1954
     24 O          -3.4850   -0.7420   -0.1810 O.2     1  UNL1       -0.2866
     25 C          -4.5640    1.2160    0.4830 C.ar    1  UNL1        0.0224
     26 C          -4.7330    2.5560    0.1130 C.ar    1  UNL1       -0.0495
     27 C          -5.8880    3.2430    0.4970 C.ar    1  UNL1       -0.0427
     28 C          -6.8720    2.5880    1.2390 C.ar    1  UNL1        0.0410
     29 C          -6.7180    1.2470    1.5930 C.ar    1  UNL1       -0.0427
     30 C          -5.5660    0.5580    1.2100 C.ar    1  UNL1       -0.0495
     31 CL         -8.2900    3.4370    1.7180 Cl      1  UNL1       -0.0835
     32 O           2.3140    0.8110   -3.4400 O.3     1  UNL1       -0.4057
     33 C           3.5940    1.1380   -2.9210 C.3     1  UNL1        0.5752
     34 F           4.5330    0.7700   -3.8220 F       1  UNL1       -0.1328
     35 F           3.7110    2.4680   -2.7150 F       1  UNL1       -0.1328
     36 F           3.8450    0.4760   -1.7700 F       1  UNL1       -0.1328
     37 C          -3.5420    8.4860   -0.3730 C.3     1  UNL1       -0.0106
     38 C          -3.3930    6.0740   -1.1440 C.3     1  UNL1       -0.0195
     39 C          -2.9910    9.9080   -0.4440 C.3     1  UNL1       -0.0613
     40 H           0.2006   -0.4810   -3.7579 H       1  UNL1        0.0654
     41 H          -1.7945   -0.4907   -2.3809 H       1  UNL1        0.0625
     42 H           1.9888    2.3662   -1.2273 H       1  UNL1        0.0675
     43 H          -3.0480    2.0249    2.4252 H       1  UNL1        0.0292
     44 H          -2.1814    3.5337    2.2648 H       1  UNL1        0.0292
     45 H          -1.4289    2.1748    3.0649 H       1  UNL1        0.0292
     46 H           1.4937    3.4629    0.5839 H       1  UNL1        0.0541
     47 H           0.7486    3.0508    2.1478 H       1  UNL1        0.0541
     48 H          -0.3667    5.0600   -0.8137 H       1  UNL1        0.0657
     49 H          -1.3597    8.3558    1.5964 H       1  UNL1        0.0654
     50 H          -0.6240    7.1453    3.5638 H       1  UNL1        0.0619
     51 H           0.2395    4.8950    3.3502 H       1  UNL1        0.0621
     52 H          -4.0065    3.0350   -0.4418 H       1  UNL1        0.0625
     53 H          -6.0130    4.2326    0.2324 H       1  UNL1        0.0632
     54 H          -7.4527    0.7667    2.1357 H       1  UNL1        0.0632
     55 H          -5.4518   -0.4362    1.4621 H       1  UNL1        0.0625
     56 H          -3.5270    8.1689    0.6488 H       1  UNL1        0.0305
     57 H          -4.5319    8.5145   -0.7782 H       1  UNL1        0.0305
     58 H          -2.8225    5.3848   -1.7310 H       1  UNL1        0.0272
     59 H          -4.3907    6.1280   -1.5269 H       1  UNL1        0.0272
     60 H          -3.4186    5.7408   -0.1275 H       1  UNL1        0.0272
     61 H          -1.9976    9.9258   -0.0469 H       1  UNL1        0.0231
     62 H          -3.6156   10.5615    0.1284 H       1  UNL1        0.0231
     63 H          -2.9736   10.2333   -1.4632 H       1  UNL1        0.0231
@<TRIPOS>UNITY_ATOM_ATTR
22 1
charge -1
@<TRIPOS>BOND
     1     1     2   ar
     2     1     4   ar
     3     1    32    1
     4     2     3   ar
     5     3     6   ar
     6     4     5   ar
     7     5     6   ar
     8     5     9   ar
     9     6     7   ar
    10     7     8   ar
    11     7    23    1
    12     8     9   ar
    13     8    10    1
    14     9    11    1
    15    11    12    1
    16    12    13   ar
    17    12    17   ar
    18    13    14   ar
    19    14    15   ar
    20    14    18    1
    21    15    16   ar
    22    16    17   ar
    23    18    19    1
    24    19    20    1
    25    19    37    1
    26    19    38    1
    27    20    21   ar
    28    20    22   ar
    29    23    24    2
    30    23    25    1
    31    25    26   ar
    32    25    30   ar
    33    26    27   ar
    34    27    28   ar
    35    28    29   ar
    36    28    31    1
    37    29    30   ar
    38    32    33    1
    39    33    34    1
    40    33    35    1
    41    33    36    1
    42    37    39    1
    43     2    40    1
    44     3    41    1
    45     4    42    1
    46    10    43    1
    47    10    44    1
    48    10    45    1
    49    11    46    1
    50    11    47    1
    51    13    48    1
    52    15    49    1
    53    16    50    1
    54    17    51    1
    55    26    52    1
    56    27    53    1
    57    29    54    1
    58    30    55    1
    59    37    56    1
    60    37    57    1
    61    38    58    1
    62    38    59    1
    63    38    60    1
    64    39    61    1
    65    39    62    1
    66    39    63    1
@<TRIPOS>MOLECULE
BDB50181902
 54 57 0 0 0
SMALL
GASTEIGER

@<TRIPOS>ATOM
      1 C           0.9600   -0.5910   -0.9850 C.ar    1  UNL1       -0.0193
      2 C          -0.2400   -1.0390   -0.4310 C.ar    1  UNL1        0.1225
      3 C          -1.1500   -0.1240    0.1100 C.ar    1  UNL1        0.0042
      4 C           1.2690    0.7740   -1.0380 C.ar    1  UNL1       -0.0491
      5 C           0.3540    1.7090   -0.5160 C.ar    1  UNL1        0.0001
      6 C          -0.8330    1.2450    0.0550 C.ar    1  UNL1        0.0529
      7 N          -1.5320    2.3520    0.4940 N.ar    1  UNL1       -0.3411
      8 C          -0.8350    3.4950    0.1920 C.ar    1  UNL1        0.0061
      9 C           0.3400    3.1270   -0.4230 C.ar    1  UNL1       -0.0364
     10 C          -2.8020    2.3290    1.1990 C.3     1  UNL1        0.0626
     11 C          -3.9460    2.0220    0.2490 C.2     1  UNL1        0.0614
     12 O          -4.3730    0.8310    0.2860 O.co2   1  UNL1       -0.5480
     13 O          -4.3690    3.0020   -0.4290 O.co2   1  UNL1       -0.5480
     14 C         -11.3350   -9.4690    0.7300 C.ar    1  UNL1       -0.0258
     15 C         -11.6230   -8.6780   -0.3760 C.ar    1  UNL1        0.1234
     16 C         -10.6090   -8.2060   -1.2050 C.ar    1  UNL1       -0.0258
     17 C          -9.2800   -8.5240   -0.9210 C.ar    1  UNL1       -0.0482
     18 C          -8.9770   -9.3050    0.2030 C.ar    1  UNL1        0.0224
     19 C         -10.0090   -9.7900    1.0190 C.ar    1  UNL1       -0.0482
     20 C          -7.5810   -9.6840    0.5320 C.2     1  UNL1        0.1931
     21 C          -6.4460   -8.7550    0.3050 C.ar    1  UNL1        0.0225
     22 O          -7.3600  -10.7950    1.0040 O.2     1  UNL1       -0.2867
     23 C          -6.5750   -7.3750    0.4950 C.ar    1  UNL1       -0.0475
     24 C          -5.4750   -6.5310    0.2910 C.ar    1  UNL1       -0.0193
     25 C          -4.2420   -7.0640   -0.0910 C.ar    1  UNL1        0.1205
     26 C          -4.1160   -8.4460   -0.2640 C.ar    1  UNL1       -0.0193
     27 C          -5.2080   -9.2910   -0.0600 C.ar    1  UNL1       -0.0475
     28 O          -3.0960   -6.3520   -0.3210 O.3     1  UNL1       -0.4918
     29 C          -3.1470   -4.9440   -0.0930 C.3     1  UNL1        0.0927
     30 C          -1.7670   -4.3710   -0.3880 C.3     1  UNL1        0.0157
     31 C          -1.7260   -2.8690   -0.1400 C.3     1  UNL1        0.0927
     32 O          -0.4180   -2.3990   -0.4680 O.3     1  UNL1       -0.4918
     33 F         -12.8970   -8.3710   -0.6540 F       1  UNL1       -0.2055
     34 H           1.6316   -1.2777   -1.3623 H       1  UNL1        0.0654
     35 H          -2.0319   -0.4458    0.5387 H       1  UNL1        0.0675
     36 H           2.1579    1.0915   -1.4552 H       1  UNL1        0.0625
     37 H          -1.1387    4.4610    0.3911 H       1  UNL1        0.0809
     38 H           1.0784    3.7661   -0.7567 H       1  UNL1        0.0639
     39 H          -2.9689    3.2846    1.6505 H       1  UNL1        0.0553
     40 H          -2.7638    1.5633    1.9454 H       1  UNL1        0.0553
     41 H         -12.0970   -9.8163    1.3331 H       1  UNL1        0.0646
     42 H         -10.8389   -7.6238   -2.0255 H       1  UNL1        0.0646
     43 H          -8.5235   -8.1856   -1.5360 H       1  UNL1        0.0625
     44 H          -9.7874  -10.3843    1.8331 H       1  UNL1        0.0625
     45 H          -7.4820   -6.9778    0.7859 H       1  UNL1        0.0626
     46 H          -5.5764   -5.5126    0.4235 H       1  UNL1        0.0654
     47 H          -3.2067   -8.8450   -0.5452 H       1  UNL1        0.0654
     48 H          -5.1013  -10.3106   -0.1786 H       1  UNL1        0.0626
     49 H          -3.4109   -4.7501    0.9257 H       1  UNL1        0.0697
     50 H          -3.8815   -4.4907   -0.7254 H       1  UNL1        0.0697
     51 H          -1.5221   -4.5619   -1.4120 H       1  UNL1        0.0331
     52 H          -1.0604   -4.8401    0.2644 H       1  UNL1        0.0331
     53 H          -1.9366   -2.6658    0.8892 H       1  UNL1        0.0697
     54 H          -2.4588   -2.3744   -0.7427 H       1  UNL1        0.0697
@<TRIPOS>UNITY_ATOM_ATTR
13 1
charge -1
@<TRIPOS>BOND
     1     1     2   ar
     2     1     4   ar
     3     2     3   ar
     4     2    32    1
     5     3     6   ar
     6     4     5   ar
     7     5     6   ar
     8     5     9   ar
     9     6     7   ar
    10     7     8   ar
    11     7    10    1
    12     8     9   ar
    13    10    11    1
    14    11    12   ar
    15    11    13   ar
    16    14    15   ar
    17    14    19   ar
    18    15    16   ar
    19    15    33    1
    20    16    17   ar
    21    17    18   ar
    22    18    19   ar
    23    18    20    1
    24    20    21    1
    25    20    22    2
    26    21    23   ar
    27    21    27   ar
    28    23    24   ar
    29    24    25   ar
    30    25    26   ar
    31    25    28    1
    32    26    27   ar
    33    28    29    1
    34    29    30    1
    35    30    31    1
    36    31    32    1
    37     1    34    1
    38     3    35    1
    39     4    36    1
    40     8    37    1
    41     9    38    1
    42    10    39    1
    43    10    40    1
    44    14    41    1
    45    16    42    1
    46    17    43    1
    47    19    44    1
    48    23    45    1
    49    24    46    1
    50    26    47    1
    51    27    48    1
    52    29    49    1
    53    29    50    1
    54    30    51    1
    55    30    52    1
    56    31    53    1
    57    31    54    1
@<TRIPOS>MOLECULE
BDB50314832
 58 61 0 0 0
SMALL
GASTEIGER

@<TRIPOS>ATOM
      1 C          -2.0740   -0.8280   -0.2080 C.3     1  UNL1        0.0434
      2 N          -2.1880   -2.2540   -0.5120 N.am    1  UNL1       -0.2576
      3 C          -2.5550   -2.6270   -1.8980 C.3     1  UNL1        0.0575
      4 C          -3.9750   -2.2080   -2.3130 C.2     1  UNL1        0.0591
      5 O          -4.8830   -3.0510   -2.0650 O.co2   1  UNL1       -0.5482
      6 O          -4.0620   -1.0690   -2.8570 O.co2   1  UNL1       -0.5482
      7 C          -1.9650   -3.1830    0.4970 C.2     1  UNL1        0.4037
      8 O          -1.6400   -2.8730    1.6390 O.2     1  UNL1       -0.2262
      9 O          -2.1310   -4.4670    0.0720 O.3     1  UNL1       -0.4470
     10 C          -1.9560   -5.5650    0.9880 C.3     1  UNL1        0.1047
     11 C           3.0350   -1.6350    0.0490 C.3     1  UNL1        0.1347
     12 O           2.8680   -0.4200   -0.6890 O.3     1  UNL1       -0.4857
     13 C           1.5790   -0.0770   -0.9990 C.ar    1  UNL1        0.1214
     14 C           0.4350   -0.6040   -0.3980 C.ar    1  UNL1       -0.0152
     15 C          -0.8430   -0.2090   -0.8270 C.ar    1  UNL1       -0.0265
     16 C          -0.9600    0.7380   -1.8520 C.ar    1  UNL1       -0.0568
     17 C           0.1820    1.2920   -2.4300 C.ar    1  UNL1       -0.0580
     18 C           1.4460    0.8860   -2.0020 C.ar    1  UNL1       -0.0199
     19 C           9.4000   -5.2300   -0.4920 C.ar    1  UNL1       -0.0427
     20 C           8.9270   -6.4450   -0.9800 C.ar    1  UNL1        0.0410
     21 C           7.5640   -6.6350   -1.1990 C.ar    1  UNL1       -0.0427
     22 C           6.6690   -5.5970   -0.9260 C.ar    1  UNL1       -0.0481
     23 C           7.1250   -4.3630   -0.4340 C.ar    1  UNL1        0.0370
     24 C           8.5020   -4.1930   -0.2200 C.ar    1  UNL1       -0.0481
     25 C           6.1660   -3.2990   -0.1620 C.ar    1  UNL1        0.2278
     26 N           4.8540   -3.3040   -0.3110 N.ar    1  UNL1       -0.2103
     27 C           4.4650   -2.0410    0.0790 C.ar    1  UNL1        0.1198
     28 C           5.5730   -1.3180    0.4660 C.ar    1  UNL1        0.1291
     29 O           6.6700   -2.1160    0.3110 O.2     1  UNL1       -0.4401
     30 C           5.8010    0.0490    0.9630 C.3     1  UNL1       -0.0044
     31 CL         10.0320   -7.7200   -1.3160 Cl      1  UNL1       -0.0835
     32 C          -0.6440   -5.6950    1.7950 C.3     1  UNL1       -0.0155
     33 C          -1.4870   -6.2710    2.9510 C.3     1  UNL1       -0.0464
     34 C          -2.7200   -5.5820    2.3320 C.3     1  UNL1       -0.0155
     35 H          -2.0248   -0.7049    0.8538 H       1  UNL1        0.0515
     36 H          -2.9308   -0.3353   -0.6179 H       1  UNL1        0.0515
     37 H          -2.4795   -3.6904   -1.9896 H       1  UNL1        0.0527
     38 H          -1.8810   -2.1041   -2.5439 H       1  UNL1        0.0527
     39 H          -2.1971   -6.2550    0.2066 H       1  UNL1        0.0734
     40 H           2.4600   -2.4091   -0.4147 H       1  UNL1        0.0764
     41 H           2.7022   -1.4753    1.0533 H       1  UNL1        0.0764
     42 H           0.5287   -1.2894    0.3678 H       1  UNL1        0.0657
     43 H          -1.8946    1.0270   -2.1808 H       1  UNL1        0.0621
     44 H           0.0919    2.0017   -3.1738 H       1  UNL1        0.0619
     45 H           2.2891    1.3001   -2.4295 H       1  UNL1        0.0654
     46 H          10.4104   -5.0950   -0.3314 H       1  UNL1        0.0632
     47 H           7.2174   -7.5372   -1.5608 H       1  UNL1        0.0632
     48 H           5.6597   -5.7390   -1.0880 H       1  UNL1        0.0626
     49 H           8.8553   -3.2934    0.1418 H       1  UNL1        0.0626
     50 H           4.8651    0.5622    1.0374 H       1  UNL1        0.0308
     51 H           6.4421    0.5727    0.2850 H       1  UNL1        0.0308
     52 H           6.2616    0.0055    1.9278 H       1  UNL1        0.0308
     53 H          -0.1620   -4.7654    2.0150 H       1  UNL1        0.0301
     54 H           0.2056   -6.2160    1.4056 H       1  UNL1        0.0301
     55 H          -1.2165   -5.9084    3.9206 H       1  UNL1        0.0268
     56 H          -1.4869   -7.3179    3.1720 H       1  UNL1        0.0268
     57 H          -3.6096   -6.1766    2.3316 H       1  UNL1        0.0301
     58 H          -3.1357   -4.6905    2.7531 H       1  UNL1        0.0301
@<TRIPOS>UNITY_ATOM_ATTR
5 1
charge -1
@<TRIPOS>BOND
     1     1     2    1
     2     1    15    1
     3     2     3    1
     4     2     7   am
     5     3     4    1
     6     4     5   ar
     7     4     6   ar
     8     7     8    2
     9     7     9    1
    10     9    10    1
    11    10    32    1
    12    10    34    1
    13    11    12    1
    14    11    27    1
    15    12    13    1
    16    13    14   ar
    17    13    18   ar
    18    14    15   ar
    19    15    16   ar
    20    16    17   ar
    21    17    18   ar
    22    19    20   ar
    23    19    24   ar
    24    20    21   ar
    25    20    31    1
    26    21    22   ar
    27    22    23   ar
    28    23    24   ar
    29    23    25    1
    30    25    26   ar
    31    25    29   ar
    32    26    27   ar
    33    27    28   ar
    34    28    29   ar
    35    28    30    1
    36    32    33    1
    37    33    34    1
    38     1    35    1
    39     1    36    1
    40     3    37    1
    41     3    38    1
    42    10    39    1
    43    11    40    1
    44    11    41    1
    45    14    42    1
    46    16    43    1
    47    17    44    1
    48    18    45    1
    49    19    46    1
    50    21    47    1
    51    22    48    1
    52    24    49    1
    53    30    50    1
    54    30    51    1
    55    30    52    1
    56    32    53    1
    57    32    54    1
    58    33    55    1
    59    33    56    1
    60    34    57    1
    61    34    58    1
@<TRIPOS>MOLECULE
BDB50213331
 37 39 0 0 0
SMALL
GASTEIGER

@<TRIPOS>ATOM
      1 C           0.7570   -0.2900   -0.6870 C.ar    1  UNL1       -0.0463
      2 C           0.8120    0.7850   -1.5770 C.ar    1  UNL1        0.0089
      3 C          -0.3010    1.0970   -2.3710 C.ar    1  UNL1       -0.0391
      4 C          -0.4040   -1.0570   -0.5480 C.ar    1  UNL1       -0.0366
      5 C          -1.5140   -0.7240   -1.3380 C.ar    1  UNL1        0.0494
      6 C          -1.4830    0.3380   -2.2450 C.ar    1  UNL1        0.0009
      7 C          -2.7610    0.4020   -2.8650 C.ar    1  UNL1       -0.0364
      8 C          -3.5360   -0.6010   -2.3310 C.ar    1  UNL1        0.0061
      9 N          -2.7740   -1.2850   -1.4160 N.ar    1  UNL1       -0.3411
     10 C          -3.2360   -2.4410   -0.6690 C.3     1  UNL1        0.0626
     11 C          -3.5920   -2.0480    0.7530 C.2     1  UNL1        0.0614
     12 O          -2.7220   -2.3390    1.6250 O.co2   1  UNL1       -0.5480
     13 O          -4.7300   -1.5200    0.9050 O.co2   1  UNL1       -0.5480
     14 S           2.2900    1.7760   -1.7380 S.3     1  UNL1       -0.1199
     15 C           2.4170    2.3970   -0.0260 C.3     1  UNL1        0.0314
     16 C           3.4810    3.4410    0.0720 C.ar    1  UNL1        0.0228
     17 C           3.3990    4.8070   -0.1450 C.ar    1  UNL1        0.0500
     18 N           4.5830    5.5000    0.0410 N.ar    1  UNL1       -0.2402
     19 C           5.5520    4.6740    0.3890 C.ar    1  UNL1        0.1818
     20 S           5.0830    3.0240    0.5230 S.2     1  UNL1       -0.0672
     21 C           2.1910    5.5730   -0.5490 C.3     1  UNL1       -0.0215
     22 C           6.9680    5.0570    0.6680 C.3     1  UNL1        0.4407
     23 F           7.1920    6.3890    0.5090 F       1  UNL1       -0.1640
     24 F           7.3400    4.7560    1.9410 F       1  UNL1       -0.1640
     25 F           7.8450    4.4210   -0.1540 F       1  UNL1       -0.1640
     26 H           1.5884   -0.5225   -0.1216 H       1  UNL1        0.0629
     27 H          -0.2554    1.8780   -3.0441 H       1  UNL1        0.0635
     28 H          -0.4429   -1.8454    0.1168 H       1  UNL1        0.0639
     29 H          -3.0544    1.0794   -3.5862 H       1  UNL1        0.0639
     30 H          -4.5180   -0.8039   -2.5752 H       1  UNL1        0.0809
     31 H          -2.4611   -3.1785   -0.6469 H       1  UNL1        0.0553
     32 H          -4.1079   -2.8359   -1.1472 H       1  UNL1        0.0553
     33 H           2.6592    1.5844    0.6267 H       1  UNL1        0.0434
     34 H           1.4799    2.8291    0.2568 H       1  UNL1        0.0434
     35 H           1.3624    4.9039   -0.6524 H       1  UNL1        0.0293
     36 H           2.3741    6.0610   -1.4835 H       1  UNL1        0.0293
     37 H           1.9668    6.3055    0.1980 H       1  UNL1        0.0293
@<TRIPOS>UNITY_ATOM_ATTR
12 1
charge -1
@<TRIPOS>BOND
     1     1     2   ar
     2     1     4   ar
     3     2     3   ar
     4     2    14    1
     5     3     6   ar
     6     4     5   ar
     7     5     6   ar
     8     5     9   ar
     9     6     7   ar
    10     7     8   ar
    11     8     9   ar
    12     9    10    1
    13    10    11    1
    14    11    12   ar
    15    11    13   ar
    16    14    15    1
    17    15    16    1
    18    16    17   ar
    19    16    20   ar
    20    17    18   ar
    21    17    21    1
    22    18    19   ar
    23    19    20   ar
    24    19    22    1
    25    22    23    1
    26    22    24    1
    27    22    25    1
    28     1    26    1
    29     3    27    1
    30     4    28    1
    31     7    29    1
    32     8    30    1
    33    10    31    1
    34    10    32    1
    35    15    33    1
    36    15    34    1
    37    21    35    1
    38    21    36    1
    39    21    37    1
@<TRIPOS>MOLECULE
BDB50213330
 51 54 0 0 0
SMALL
GASTEIGER

@<TRIPOS>ATOM
      1 C           0.7180   -1.1270   -0.1670 C.ar    1  UNL1       -0.0193
      2 C           1.2790   -0.2820    0.7810 C.ar    1  UNL1        0.1221
      3 C           0.5590    0.0410    1.9360 C.ar    1  UNL1       -0.0056
      4 C          -0.5650   -1.6530    0.0250 C.ar    1  UNL1       -0.0498
      5 O           2.5170    0.2990    0.7060 O.3     1  UNL1       -0.4873
      6 C           3.2600    0.0840   -0.4920 C.3     1  UNL1        0.1146
      7 C           4.5690    0.8270   -0.3860 C.ar    1  UNL1       -0.0104
      8 C          -1.3200   -1.3370    1.1820 C.ar    1  UNL1       -0.0071
      9 C          -0.7350   -0.4860    2.1220 C.ar    1  UNL1        0.0230
     10 S          -1.7860   -0.2030    3.4540 S.2     1  UNL1       -0.0962
     11 C          -3.0070   -1.1860    2.7920 C.ar    1  UNL1       -0.0196
     12 C          -2.6500   -1.7480    1.5820 C.ar    1  UNL1       -0.0272
     13 C          -3.5380   -2.6700    0.7960 C.3     1  UNL1        0.0131
     14 C          -4.0890   -1.9630   -0.4420 C.2     1  UNL1        0.0461
     15 O          -3.5490   -2.2980   -1.5360 O.co2   1  UNL1       -0.5495
     16 O          -5.0390   -1.1550   -0.2300 O.co2   1  UNL1       -0.5495
     17 C           4.8880    1.8510   -1.2860 C.ar    1  UNL1       -0.0550
     18 C           6.1060    2.5270   -1.1870 C.ar    1  UNL1       -0.0550
     19 C           7.0260    2.1980   -0.1810 C.ar    1  UNL1       -0.0104
     20 C           6.7110    1.1690    0.7140 C.ar    1  UNL1       -0.0550
     21 C           5.4930    0.4920    0.6140 C.ar    1  UNL1       -0.0550
     22 C           8.3510    2.9170   -0.0940 C.3     1  UNL1        0.1146
     23 O           8.1140    4.3250   -0.0860 O.3     1  UNL1       -0.4874
     24 C           9.2080    5.1440   -0.1060 C.ar    1  UNL1        0.1210
     25 C          10.5420    4.7370   -0.0680 C.ar    1  UNL1       -0.0194
     26 C          11.5680    5.6880   -0.0970 C.ar    1  UNL1       -0.0467
     27 C          11.2760    7.0580   -0.1690 C.ar    1  UNL1        0.0550
     28 C           9.9350    7.4600   -0.1940 C.ar    1  UNL1       -0.0467
     29 C           8.9130    6.5080   -0.1650 C.ar    1  UNL1       -0.0194
     30 C          12.3830    8.0780   -0.1760 C.3     1  UNL1        0.4174
     31 F          13.5190    7.6290   -0.7800 F       1  UNL1       -0.1659
     32 F          12.7510    8.4510    1.0800 F       1  UNL1       -0.1659
     33 F          12.0500    9.2280   -0.8260 F       1  UNL1       -0.1659
     34 H           1.2497   -1.3687   -1.0178 H       1  UNL1        0.0654
     35 H           0.9732    0.6621    2.6485 H       1  UNL1        0.0665
     36 H          -0.9677   -2.2813   -0.6878 H       1  UNL1        0.0625
     37 H           2.7051    0.4491   -1.3308 H       1  UNL1        0.0748
     38 H           3.4428   -0.9617   -0.6263 H       1  UNL1        0.0748
     39 H          -3.9193   -1.3456    3.2473 H       1  UNL1        0.0696
     40 H          -4.3535   -2.9836    1.4137 H       1  UNL1        0.0373
     41 H          -2.9637   -3.5164    0.4820 H       1  UNL1        0.0373
     42 H           4.2182    2.1081   -2.0279 H       1  UNL1        0.0621
     43 H           6.3312    3.2758   -1.8605 H       1  UNL1        0.0621
     44 H           7.3830    0.9086    1.4527 H       1  UNL1        0.0621
     45 H           5.2712   -0.2621    1.2827 H       1  UNL1        0.0621
     46 H           8.9555    2.6594   -0.9385 H       1  UNL1        0.0748
     47 H           8.8607    2.6303    0.8020 H       1  UNL1        0.0748
     48 H          10.7725    3.7323   -0.0184 H       1  UNL1        0.0654
     49 H          12.5517    5.3776   -0.0650 H       1  UNL1        0.0624
     50 H           9.7005    8.4642   -0.2340 H       1  UNL1        0.0624
     51 H           7.9283    6.8162   -0.1874 H       1  UNL1        0.0654
@<TRIPOS>UNITY_ATOM_ATTR
15 1
charge -1
@<TRIPOS>BOND
     1     1     2   ar
     2     1     4   ar
     3     2     3   ar
     4     2     5    1
     5     3     9   ar
     6     4     8   ar
     7     5     6    1
     8     6     7    1
     9     7    17   ar
    10     7    21   ar
    11     8     9   ar
    12     8    12   ar
    13     9    10   ar
    14    10    11   ar
    15    11    12   ar
    16    12    13    1
    17    13    14    1
    18    14    15   ar
    19    14    16   ar
    20    17    18   ar
    21    18    19   ar
    22    19    20   ar
    23    19    22    1
    24    20    21   ar
    25    22    23    1
    26    23    24    1
    27    24    25   ar
    28    24    29   ar
    29    25    26   ar
    30    26    27   ar
    31    27    28   ar
    32    27    30    1
    33    28    29   ar
    34    30    31    1
    35    30    32    1
    36    30    33    1
    37     1    34    1
    38     3    35    1
    39     4    36    1
    40     6    37    1
    41     6    38    1
    42    11    39    1
    43    13    40    1
    44    13    41    1
    45    17    42    1
    46    18    43    1
    47    20    44    1
    48    21    45    1
    49    22    46    1
    50    22    47    1
    51    25    48    1
    52    26    49    1
    53    28    50    1
    54    29    51    1
@<TRIPOS>MOLECULE
BDB50213315
 43 46 0 0 0
SMALL
GASTEIGER

@<TRIPOS>ATOM
      1 C           0.6670   -0.8050   -1.1500 C.ar    1  UNL1       -0.0193
      2 C           1.5900   -0.5470   -0.1450 C.ar    1  UNL1        0.1222
      3 C           1.1970   -0.6250    1.1950 C.ar    1  UNL1       -0.0056
      4 C          -0.6550   -1.1410   -0.8270 C.ar    1  UNL1       -0.0498
      5 O           2.9040   -0.2070   -0.3280 O.3     1  UNL1       -0.4857
      6 C           3.3580   -0.0420   -1.6750 C.3     1  UNL1        0.1346
      7 C           4.7930    0.3750   -1.7130 C.ar    1  UNL1        0.1213
      8 C          -1.0820   -1.2230    0.5230 C.ar    1  UNL1       -0.0071
      9 C          -0.1350   -0.9580    1.5150 C.ar    1  UNL1        0.0230
     10 S          -0.8180   -1.0910    3.0880 S.2     1  UNL1       -0.0962
     11 C          -2.3520   -1.4890    2.4670 C.ar    1  UNL1       -0.0196
     12 C          -2.3780   -1.5400    1.0870 C.ar    1  UNL1       -0.0272
     13 C          -3.6020   -1.8860    0.2880 C.3     1  UNL1        0.0131
     14 C          -4.1740   -0.6420   -0.3910 C.2     1  UNL1        0.0461
     15 O          -3.9520   -0.5610   -1.6340 O.co2   1  UNL1       -0.5495
     16 O          -4.8230    0.1400    0.3600 O.co2   1  UNL1       -0.5495
     17 N           5.4920    0.2910   -2.8530 N.ar    1  UNL1       -0.0792
     18 O           6.7620    0.7510   -2.5480 O.2     1  UNL1       -0.3543
     19 C           6.8250    1.1130   -1.2330 C.ar    1  UNL1        0.1676
     20 C           5.5920    0.8930   -0.6650 C.ar    1  UNL1        0.0117
     21 C           8.1070    1.6200   -0.7500 C.ar    1  UNL1        0.0200
     22 C           9.2190    1.7330   -1.5980 C.ar    1  UNL1       -0.0505
     23 C          10.4430    2.2180   -1.1230 C.ar    1  UNL1       -0.0494
     24 C          10.5890    2.5990    0.2170 C.ar    1  UNL1        0.0548
     25 C           9.4810    2.4980    1.0670 C.ar    1  UNL1       -0.0494
     26 C           8.2580    2.0120    0.5890 C.ar    1  UNL1       -0.0505
     27 C          11.9000    3.1430    0.7240 C.3     1  UNL1        0.4174
     28 F          11.9850    4.4960    0.5930 F       1  UNL1       -0.1659
     29 F          12.1140    2.8820    2.0440 F       1  UNL1       -0.1659
     30 F          12.9810    2.6350    0.0670 F       1  UNL1       -0.1659
     31 H           0.9557   -0.7491   -2.1392 H       1  UNL1        0.0654
     32 H           1.8794   -0.4395    1.9466 H       1  UNL1        0.0665
     33 H          -1.3292   -1.3320   -1.5846 H       1  UNL1        0.0625
     34 H           2.7637    0.7075   -2.1546 H       1  UNL1        0.0764
     35 H           3.2633   -0.9793   -2.1823 H       1  UNL1        0.0764
     36 H          -3.1765   -1.6730    3.0597 H       1  UNL1        0.0696
     37 H          -4.3414   -2.3013    0.9404 H       1  UNL1        0.0373
     38 H          -3.3312   -2.5954   -0.4659 H       1  UNL1        0.0373
     39 H           5.3104    1.0675    0.3124 H       1  UNL1        0.0675
     40 H           9.1331    1.4540   -2.5879 H       1  UNL1        0.0625
     41 H          11.2460    2.2957   -1.7665 H       1  UNL1        0.0623
     42 H           9.5665    2.7844    2.0548 H       1  UNL1        0.0623
     43 H           7.4541    1.9409    1.2322 H       1  UNL1        0.0625
@<TRIPOS>UNITY_ATOM_ATTR
15 1
charge -1
@<TRIPOS>BOND
     1     1     2   ar
     2     1     4   ar
     3     2     3   ar
     4     2     5    1
     5     3     9   ar
     6     4     8   ar
     7     5     6    1
     8     6     7    1
     9     7    17   ar
    10     7    20   ar
    11     8     9   ar
    12     8    12   ar
    13     9    10   ar
    14    10    11   ar
    15    11    12   ar
    16    12    13    1
    17    13    14    1
    18    14    15   ar
    19    14    16   ar
    20    17    18   ar
    21    18    19   ar
    22    19    20   ar
    23    19    21    1
    24    21    22   ar
    25    21    26   ar
    26    22    23   ar
    27    23    24   ar
    28    24    25   ar
    29    24    27    1
    30    25    26   ar
    31    27    28    1
    32    27    29    1
    33    27    30    1
    34     1    31    1
    35     3    32    1
    36     4    33    1
    37     6    34    1
    38     6    35    1
    39    11    36    1
    40    13    37    1
    41    13    38    1
    42    20    39    1
    43    22    40    1
    44    23    41    1
    45    25    42    1
    46    26    43    1
@<TRIPOS>MOLECULE
BDB50212712
 57 60 0 0 0
SMALL
GASTEIGER

@<TRIPOS>ATOM
      1 C           5.1570   -5.3270   -0.8030 C.ar    1  UNL1       -0.0196
      2 C           6.2990   -4.8600   -0.1460 C.ar    1  UNL1        0.1210
      3 C           6.2590   -3.6180    0.4890 C.ar    1  UNL1       -0.0196
      4 C           5.0860   -2.8550    0.4680 C.ar    1  UNL1       -0.0543
      5 C           3.9360   -3.3240   -0.1820 C.ar    1  UNL1       -0.0370
      6 C           3.9860   -4.5670   -0.8250 C.ar    1  UNL1       -0.0543
      7 O           7.3750   -5.7050   -0.2010 O.3     1  UNL1       -0.4874
      8 C           2.6780   -2.4960   -0.2090 C.3     1  UNL1        0.0234
      9 S           2.6450   -1.3750   -1.6450 S.3     1  UNL1       -0.1202
     10 C           1.0690   -0.6050   -1.3330 C.ar    1  UNL1        0.0118
     11 C          -1.4920    0.5240   -0.7990 C.ar    1  UNL1        0.1245
     12 C          -1.3590   -0.5810   -1.6420 C.ar    1  UNL1       -0.0186
     13 C          -0.0920   -1.1380   -1.9060 C.ar    1  UNL1       -0.0446
     14 C          -0.3310    1.0670   -0.2620 C.ar    1  UNL1       -0.0015
     15 C           0.9350    0.5160   -0.5230 C.ar    1  UNL1       -0.0273
     16 C           1.9940    1.2670    0.2290 C.3     1  UNL1       -0.0260
     17 C           1.2640    2.5740    0.5630 C.3     1  UNL1       -0.0449
     18 C          -0.2220    2.2250    0.6860 C.3     1  UNL1       -0.0236
     19 O          -2.6610    1.1330   -0.4460 O.3     1  UNL1       -0.4859
     20 C          -3.8780    0.4990   -0.8620 C.3     1  UNL1        0.1287
     21 C          -5.0610    1.2410   -0.2200 C.2     1  UNL1        0.0789
     22 O          -5.6630    2.0590   -0.9750 O.co2   1  UNL1       -0.5463
     23 O          -5.3180    0.9160    0.9760 O.co2   1  UNL1       -0.5463
     24 C           8.5700   -5.2830    0.4560 C.3     1  UNL1        0.1146
     25 C           9.6430   -6.3260    0.2480 C.ar    1  UNL1       -0.0102
     26 C          10.3280   -6.8780    1.3370 C.ar    1  UNL1       -0.0519
     27 C          11.3440   -7.8220    1.1430 C.ar    1  UNL1       -0.0193
     28 C          11.6940   -8.2250   -0.1470 C.ar    1  UNL1        0.1300
     29 C          11.0120   -7.6750   -1.2360 C.ar    1  UNL1       -0.0193
     30 C           9.9980   -6.7320   -1.0440 C.ar    1  UNL1       -0.0519
     31 O          12.6640   -9.1280   -0.4810 O.3     1  UNL1       -0.4057
     32 C          13.4200   -9.7080    0.5690 C.3     1  UNL1        0.5752
     33 F          14.3310  -10.5520    0.0360 F       1  UNL1       -0.1328
     34 F          14.0830   -8.7630    1.2710 F       1  UNL1       -0.1328
     35 F          12.6280  -10.4160    1.4030 F       1  UNL1       -0.1328
     36 H           5.1797   -6.2435   -1.2769 H       1  UNL1        0.0654
     37 H           7.0965   -3.2613    0.9753 H       1  UNL1        0.0654
     38 H           5.0674   -1.9358    0.9368 H       1  UNL1        0.0622
     39 H           3.1524   -4.9234   -1.3180 H       1  UNL1        0.0622
     40 H           2.6258   -1.9140    0.6874 H       1  UNL1        0.0428
     41 H           1.8417   -3.1594   -0.2825 H       1  UNL1        0.0428
     42 H          -2.1985   -0.9946   -2.0768 H       1  UNL1        0.0654
     43 H          -0.0184   -1.9541   -2.5334 H       1  UNL1        0.0630
     44 H           2.8547    1.4451   -0.3813 H       1  UNL1        0.0314
     45 H           2.3723    0.7479    1.0848 H       1  UNL1        0.0314
     46 H           1.4118    3.2897   -0.2185 H       1  UNL1        0.0272
     47 H           1.6362    3.0035    1.4696 H       1  UNL1        0.0272
     48 H          -0.4758    1.9385    1.6852 H       1  UNL1        0.0314
     49 H          -0.8828    3.0368    0.4642 H       1  UNL1        0.0314
     50 H          -3.8787   -0.5230   -0.5452 H       1  UNL1        0.0760
     51 H          -3.9613    0.5311   -1.9283 H       1  UNL1        0.0760
     52 H           8.3814   -5.1667    1.5028 H       1  UNL1        0.0748
     53 H           8.8933   -4.3472    0.0502 H       1  UNL1        0.0748
     54 H          10.0810   -6.5854    2.2953 H       1  UNL1        0.0622
     55 H          11.8362   -8.2216    1.9573 H       1  UNL1        0.0654
     56 H          11.2601   -7.9687   -2.1937 H       1  UNL1        0.0654
     57 H           9.5080   -6.3326   -1.8598 H       1  UNL1        0.0622
@<TRIPOS>UNITY_ATOM_ATTR
22 1
charge -1
@<TRIPOS>BOND
     1     1     2   ar
     2     1     6   ar
     3     2     3   ar
     4     2     7    1
     5     3     4   ar
     6     4     5   ar
     7     5     6   ar
     8     5     8    1
     9     7    24    1
    10     8     9    1
    11     9    10    1
    12    10    13   ar
    13    10    15   ar
    14    11    12   ar
    15    11    14   ar
    16    11    19    1
    17    12    13   ar
    18    14    15   ar
    19    14    18    1
    20    15    16    1
    21    16    17    1
    22    17    18    1
    23    19    20    1
    24    20    21    1
    25    21    22   ar
    26    21    23   ar
    27    24    25    1
    28    25    26   ar
    29    25    30   ar
    30    26    27   ar
    31    27    28   ar
    32    28    29   ar
    33    28    31    1
    34    29    30   ar
    35    31    32    1
    36    32    33    1
    37    32    34    1
    38    32    35    1
    39     1    36    1
    40     3    37    1
    41     4    38    1
    42     6    39    1
    43     8    40    1
    44     8    41    1
    45    12    42    1
    46    13    43    1
    47    16    44    1
    48    16    45    1
    49    17    46    1
    50    17    47    1
    51    18    48    1
    52    18    49    1
    53    20    50    1
    54    20    51    1
    55    24    52    1
    56    24    53    1
    57    26    54    1
    58    27    55    1
    59    29    56    1
    60    30    57    1
@<TRIPOS>MOLECULE
BDB50264403
 51 54 0 0 0
SMALL
GASTEIGER

@<TRIPOS>ATOM
      1 C           3.4860   -0.0900    0.0910 C.ar    1  UNL1        0.1733
      2 C           4.8870   -0.2540    0.3140 C.ar    1  UNL1        0.2003
      3 N           5.6320   -1.4110    0.2320 N.ar    1  UNL1       -0.2999
      4 C           6.9070   -1.0430    0.5800 C.ar    1  UNL1        0.1924
      5 N           6.9500    0.2450    0.8240 N.ar    1  UNL1       -0.1221
      6 N           5.6830    0.7430    0.6540 N.ar    1  UNL1       -0.1251
      7 S           8.2420   -2.1400    0.6770 S.3     1  UNL1       -0.0766
      8 C           9.5510   -1.0290    1.2640 C.3     1  UNL1        0.0779
      9 C          10.8410   -1.8120    1.4080 C.2     1  UNL1        0.2275
     10 N          11.5190   -1.9410    0.2030 N.am    1  UNL1       -0.2848
     11 O          11.1890   -2.2520    2.5010 O.2     1  UNL1       -0.2746
     12 C          12.7610   -2.5740   -0.0180 C.ar    1  UNL1        0.0334
     13 C          13.2410   -2.5900   -1.3330 C.ar    1  UNL1       -0.0399
     14 C          14.4640   -3.1930   -1.6370 C.ar    1  UNL1       -0.0511
     15 C          15.2360   -3.7950   -0.6340 C.ar    1  UNL1       -0.0026
     16 C          14.7480   -3.7750    0.6800 C.ar    1  UNL1       -0.0511
     17 C          13.5230   -3.1710    0.9860 C.ar    1  UNL1       -0.0399
     18 C          16.5600   -4.4450   -0.9610 C.2     1  UNL1        0.0717
     19 O          16.9320   -4.4190   -2.1760 O.co2   1  UNL1       -0.5446
     20 O          17.2030   -4.9670    0.0040 O.co2   1  UNL1       -0.5446
     21 C           5.1720   -2.7330   -0.1460 C.3     1  UNL1        0.0244
     22 C           4.6370   -3.5270    1.0350 C.3     1  UNL1       -0.0470
     23 C           2.7260    1.0650    0.0980 C.ar    1  UNL1       -0.0048
     24 O           2.6740   -1.1580   -0.1620 O.2     1  UNL1       -0.4480
     25 C           1.4020   -0.6930   -0.3200 C.ar    1  UNL1        0.1772
     26 C           1.3840    0.6870   -0.1670 C.ar    1  UNL1        0.0245
     27 C           0.1590    1.3610   -0.2930 C.ar    1  UNL1       -0.0507
     28 C          -0.9900    0.6100   -0.5670 C.ar    1  UNL1       -0.0575
     29 C          -0.9290   -0.7830   -0.7150 C.ar    1  UNL1       -0.0162
     30 C           0.2800   -1.4850   -0.5940 C.ar    1  UNL1        0.1627
     31 O           0.4430   -2.8360   -0.7200 O.3     1  UNL1       -0.4914
     32 C          -0.7230   -3.6050   -0.9790 C.3     1  UNL1        0.0790
     33 H           9.2736   -0.6186    2.2124 H       1  UNL1        0.0475
     34 H           9.6894   -0.2336    0.5618 H       1  UNL1        0.0475
     35 H          11.0839   -1.5460   -0.5869 H       1  UNL1        0.1548
     36 H          12.6861   -2.1522   -2.0850 H       1  UNL1        0.0636
     37 H          14.8030   -3.1952   -2.6117 H       1  UNL1        0.0625
     38 H          15.3007   -4.2126    1.4337 H       1  UNL1        0.0625
     39 H          13.1818   -3.1674    1.9599 H       1  UNL1        0.0636
     40 H           5.9908   -3.2702   -0.5772 H       1  UNL1        0.0490
     41 H           4.3696   -2.6094   -0.8430 H       1  UNL1        0.0490
     42 H           5.4178   -3.6684    1.7528 H       1  UNL1        0.0247
     43 H           4.2879   -4.4797    0.6955 H       1  UNL1        0.0247
     44 H           3.8288   -2.9917    1.4879 H       1  UNL1        0.0247
     45 H           3.0704    2.0234    0.2648 H       1  UNL1        0.0663
     46 H           0.1068    2.3861   -0.1861 H       1  UNL1        0.0625
     47 H          -1.8985    1.0903   -0.6618 H       1  UNL1        0.0619
     48 H          -1.7955   -1.3054   -0.9181 H       1  UNL1        0.0655
     49 H          -0.4587   -4.6391   -1.0547 H       1  UNL1        0.0660
     50 H          -1.1665   -3.2820   -1.8977 H       1  UNL1        0.0660
     51 H          -1.4221   -3.4731   -0.1797 H       1  UNL1        0.0660
@<TRIPOS>UNITY_ATOM_ATTR
19 1
charge -1
@<TRIPOS>BOND
     1     1     2    1
     2     1    23   ar
     3     1    24   ar
     4     2     3   ar
     5     2     6   ar
     6     3     4   ar
     7     3    21    1
     8     4     5   ar
     9     4     7    1
    10     5     6   ar
    11     7     8    1
    12     8     9    1
    13     9    10   am
    14     9    11    2
    15    10    12    1
    16    12    13   ar
    17    12    17   ar
    18    13    14   ar
    19    14    15   ar
    20    15    16   ar
    21    15    18    1
    22    16    17   ar
    23    18    19   ar
    24    18    20   ar
    25    21    22    1
    26    23    26   ar
    27    24    25   ar
    28    25    26   ar
    29    25    30   ar
    30    26    27   ar
    31    27    28   ar
    32    28    29   ar
    33    29    30   ar
    34    30    31    1
    35    31    32    1
    36     8    33    1
    37     8    34    1
    38    10    35    1
    39    13    36    1
    40    14    37    1
    41    16    38    1
    42    17    39    1
    43    21    40    1
    44    21    41    1
    45    22    42    1
    46    22    43    1
    47    22    44    1
    48    23    45    1
    49    27    46    1
    50    28    47    1
    51    29    48    1
    52    32    49    1
    53    32    50    1
    54    32    51    1
@<TRIPOS>MOLECULE
BDB50151001
 67 70 0 0 0
SMALL
GASTEIGER

@<TRIPOS>ATOM
      1 N           1.3770   -1.6840    1.2190 N.ar    1  UNL1       -0.2136
      2 C           2.0310   -0.5580    0.9980 C.ar    1  UNL1        0.2276
      3 O           1.2730    0.4210    0.4110 O.2     1  UNL1       -0.4402
      4 C           0.1070   -1.4350    0.7500 C.ar    1  UNL1        0.0860
      5 C           0.0410   -0.1500    0.2580 C.ar    1  UNL1        0.1258
      6 C           1.8870  -13.9070   -0.9390 C.2     1  UNL1        0.0010
      7 C           2.1950  -14.4690    0.2450 C.2     1  UNL1        0.1256
      8 C           0.8390  -12.8700   -0.9690 C.2     1  UNL1        0.0370
      9 CA          0.0810  -10.8300    0.0620 C.3     1  UNL1        0.0941
     10 C          -0.7110  -11.5870    1.1820 C.2     1  UNL1        0.0664
     11 N           1.1440  -11.7190   -0.4670 N.2     1  UNL1       -0.2789
     12 C           3.4230   -0.2290    1.2900 C.ar    1  UNL1        0.0369
     13 C          -0.7300  -10.1690   -1.0500 C.3     1  UNL1        0.0000
     14 O          -0.1070  -12.6050    1.6660 O.co2   1  UNL1       -0.5476
     15 O           1.6080  -14.1570    1.4630 O.2     1  UNL1       -0.5061
     16 C           3.2570  -15.4950    0.3460 C.ar    1  UNL1        0.0165
     17 C          -0.9450   -2.4790    0.8190 C.3     1  UNL1        0.0272
     18 C          -0.9650   -8.7000   -0.7840 C.ar    1  UNL1       -0.0448
     19 OXT        -1.8540  -11.1300    1.4610 O.co2   1  UNL1       -0.5476
     20 C          -1.3220   -5.9850   -0.1650 C.ar    1  UNL1        0.1205
     21 C          -0.5160   -3.7720    0.1320 C.3     1  UNL1        0.0951
     22 C          -0.0170   -7.7500   -1.1820 C.ar    1  UNL1       -0.0550
     23 C          -2.1000   -8.2760   -0.0840 C.ar    1  UNL1       -0.0550
     24 C          -0.1950   -6.3980   -0.8780 C.ar    1  UNL1       -0.0197
     25 C          -2.2790   -6.9270    0.2160 C.ar    1  UNL1       -0.0197
     26 O          -1.5990   -4.7000    0.2150 O.3     1  UNL1       -0.4916
     27 C          -1.0120    0.6720   -0.3620 C.3     1  UNL1       -0.0045
     28 C          -0.5020  -13.2990   -1.5110 C.3     1  UNL1       -0.0226
     29 C           4.2540   -1.1940    1.8800 C.ar    1  UNL1       -0.0495
     30 C           3.9660    1.0320    0.9980 C.ar    1  UNL1       -0.0495
     31 C           3.3980  -16.5200   -0.6040 C.ar    1  UNL1       -0.0511
     32 C           4.1460  -15.4680    1.4320 C.ar    1  UNL1       -0.0511
     33 C           5.5900   -0.9080    2.1710 C.ar    1  UNL1       -0.0610
     34 C           5.3030    1.3190    1.2900 C.ar    1  UNL1       -0.0610
     35 C           4.4120  -17.4760   -0.4800 C.ar    1  UNL1       -0.0611
     36 C           5.1580  -16.4220    1.5560 C.ar    1  UNL1       -0.0611
     37 C           6.1140    0.3490    1.8760 C.ar    1  UNL1       -0.0617
     38 C           5.2920  -17.4250    0.5980 C.ar    1  UNL1       -0.0617
     39 H           2.3719  -14.1946   -1.8034 H       1  UNL1        0.0672
     40 HA          0.5021   -9.9753    0.5490 H       1  UNL1        0.0609
     41 H          -1.6767  -10.6618   -1.1266 H       1  UNL1        0.0337
     42 H          -0.1737  -10.2548   -1.9600 H       1  UNL1        0.0337
     43 H           0.9243  -13.5176    1.5034 H       1  UNL1        0.2922
     44 H          -1.8285   -2.1108    0.3406 H       1  UNL1        0.0362
     45 H          -1.1249   -2.6980    1.8508 H       1  UNL1        0.0362
     46 H           0.3451   -4.1749    0.6229 H       1  UNL1        0.0700
     47 H          -0.2679   -3.5829   -0.8915 H       1  UNL1        0.0700
     48 H           0.8206   -8.0509   -1.7045 H       1  UNL1        0.0621
     49 H          -2.8082   -8.9660    0.2116 H       1  UNL1        0.0621
     50 H           0.5068   -5.7045   -1.1806 H       1  UNL1        0.0654
     51 H          -3.1246   -6.6224    0.7232 H       1  UNL1        0.0654
     52 H          -0.6176    1.6383   -0.5979 H       1  UNL1        0.0308
     53 H          -1.8300    0.7773    0.3197 H       1  UNL1        0.0308
     54 H          -1.3534    0.1976   -1.2583 H       1  UNL1        0.0308
     55 H          -0.4402  -14.3098   -1.8565 H       1  UNL1        0.0292
     56 H          -0.7790  -12.6605   -2.3237 H       1  UNL1        0.0292
     57 H          -1.2378  -13.2309   -0.7371 H       1  UNL1        0.0292
     58 H           3.8730   -2.1271    2.1018 H       1  UNL1        0.0625
     59 H           3.3720    1.7552    0.5631 H       1  UNL1        0.0625
     60 H           2.7462  -16.5685   -1.4026 H       1  UNL1        0.0625
     61 H           4.0502  -14.7322    2.1493 H       1  UNL1        0.0625
     62 H           6.1891   -1.6278    2.6046 H       1  UNL1        0.0618
     63 H           5.6897    2.2505    1.0712 H       1  UNL1        0.0618
     64 H           4.5079  -18.2201   -1.1886 H       1  UNL1        0.0618
     65 H           5.8070  -16.3843    2.3575 H       1  UNL1        0.0618
     66 H           7.1008    0.5612    2.0911 H       1  UNL1        0.0618
     67 H           6.0418  -18.1285    0.6872 H       1  UNL1        0.0618
@<TRIPOS>UNITY_ATOM_ATTR
19 1
charge -1
@<TRIPOS>BOND
     1     1     2   ar
     2     1     4   ar
     3     2     3   ar
     4     2    12    1
     5     3     5   ar
     6     4     5   ar
     7     4    17    1
     8     5    27    1
     9     6     7    2
    10     6     8    1
    11     7    15    1
    12     7    16    1
    13     8    11    2
    14     8    28    1
    15     9    10    1
    16     9    11    1
    17     9    13    1
    18    10    14   ar
    19    10    19   ar
    20    12    29   ar
    21    12    30   ar
    22    13    18    1
    23    16    31   ar
    24    16    32   ar
    25    17    21    1
    26    18    22   ar
    27    18    23   ar
    28    20    24   ar
    29    20    25   ar
    30    20    26    1
    31    21    26    1
    32    22    24   ar
    33    23    25   ar
    34    29    33   ar
    35    30    34   ar
    36    31    35   ar
    37    32    36   ar
    38    33    37   ar
    39    34    37   ar
    40    35    38   ar
    41    36    38   ar
    42     6    39    1
    43     9    40    1
    44    13    41    1
    45    13    42    1
    46    15    43    1
    47    17    44    1
    48    17    45    1
    49    21    46    1
    50    21    47    1
    51    22    48    1
    52    23    49    1
    53    24    50    1
    54    25    51    1
    55    27    52    1
    56    27    53    1
    57    27    54    1
    58    28    55    1
    59    28    56    1
    60    28    57    1
    61    29    58    1
    62    30    59    1
    63    31    60    1
    64    32    61    1
    65    33    62    1
    66    34    63    1
    67    35    64    1
    68    36    65    1
    69    37    66    1
    70    38    67    1
@<TRIPOS>MOLECULE
BDB50124379
 59 62 0 0 0
SMALL
GASTEIGER

@<TRIPOS>ATOM
      1 C          10.3730    1.4860    0.4720 C.ar    1  UNL1       -0.0548
      2 C           9.0440    1.0770    0.3190 C.ar    1  UNL1       -0.0197
      3 C           8.7470   -0.2680    0.0990 C.ar    1  UNL1        0.1205
      4 C           9.7910   -1.1950    0.0280 C.ar    1  UNL1       -0.0197
      5 C          11.1180   -0.7860    0.1800 C.ar    1  UNL1       -0.0548
      6 C          11.4200    0.5590    0.4150 C.ar    1  UNL1       -0.0417
      7 C          12.8490    1.0080    0.5730 C.3     1  UNL1        0.0120
      8 C          13.4240    1.4720   -0.7630 C.2     1  UNL1        0.0460
      9 O          14.0370    0.5860   -1.4240 O.co2   1  UNL1       -0.5495
     10 O          13.2460    2.6960   -1.0310 O.co2   1  UNL1       -0.5495
     11 O           7.4960   -0.8010   -0.0670 O.3     1  UNL1       -0.4918
     12 C           6.3940    0.1040   -0.0200 C.3     1  UNL1        0.0927
     13 C           5.1200   -0.7060   -0.2310 C.3     1  UNL1        0.0157
     14 C           3.8750    0.1700   -0.1980 C.3     1  UNL1        0.0927
     15 O           2.7450   -0.6770   -0.4020 O.3     1  UNL1       -0.4915
     16 C           1.4950   -0.1090   -0.3600 C.ar    1  UNL1        0.1273
     17 C           1.2580    1.2640   -0.2050 C.ar    1  UNL1       -0.0188
     18 C          -0.0470    1.7820   -0.1640 C.ar    1  UNL1       -0.0454
     19 C           0.4210   -1.0200   -0.4880 C.ar    1  UNL1        0.0397
     20 C          -0.8590   -0.4520   -0.4310 C.ar    1  UNL1        0.1745
     21 C          -1.1300    0.8960   -0.2840 C.ar    1  UNL1        0.0495
     22 C          -2.5570    0.9730   -0.2910 C.ar    1  UNL1        0.1211
     23 N          -3.0920   -0.2540   -0.4060 N.ar    1  UNL1       -0.0770
     24 O          -2.0330   -1.1330   -0.5020 O.2     1  UNL1       -0.3537
     25 C          -3.4110    2.1540   -0.1850 C.ar    1  UNL1        0.0042
     26 C          -3.0930    3.3370   -0.8650 C.ar    1  UNL1       -0.0524
     27 C          -3.9180    4.4600   -0.7570 C.ar    1  UNL1       -0.0611
     28 C          -5.0710    4.4080    0.0260 C.ar    1  UNL1       -0.0617
     29 C          -5.4030    3.2340    0.6980 C.ar    1  UNL1       -0.0611
     30 C          -4.5790    2.1110    0.5920 C.ar    1  UNL1       -0.0524
     31 C           0.6380   -2.5050   -0.6370 C.3     1  UNL1       -0.0209
     32 C           0.8180   -3.1870    0.7200 C.3     1  UNL1       -0.0517
     33 C           1.0270   -4.6850    0.5640 C.3     1  UNL1       -0.0650
     34 H          10.5841    2.4839    0.6289 H       1  UNL1        0.0622
     35 H           8.2822    1.7714    0.3690 H       1  UNL1        0.0654
     36 H           9.5793   -2.1913   -0.1383 H       1  UNL1        0.0654
     37 H          11.8794   -1.4800    0.1186 H       1  UNL1        0.0622
     38 H          13.4342    0.1917    0.9419 H       1  UNL1        0.0373
     39 H          12.8763    1.8274    1.2605 H       1  UNL1        0.0373
     40 H           6.4916    0.8376   -0.7928 H       1  UNL1        0.0697
     41 H           6.3646    0.6102    0.9222 H       1  UNL1        0.0697
     42 H           5.0458   -1.4410    0.5430 H       1  UNL1        0.0331
     43 H           5.1760   -1.1645   -1.1962 H       1  UNL1        0.0331
     44 H           3.9252    0.9045   -0.9745 H       1  UNL1        0.0697
     45 H           3.7985    0.6785    0.7403 H       1  UNL1        0.0697
     46 H           2.0597    1.9081   -0.1192 H       1  UNL1        0.0654
     47 H          -0.2070    2.7949   -0.0478 H       1  UNL1        0.0626
     48 H          -2.2437    3.3795   -1.4497 H       1  UNL1        0.0624
     49 H          -3.6737    5.3289   -1.2573 H       1  UNL1        0.0618
     50 H          -5.6778    5.2388    0.1074 H       1  UNL1        0.0618
     51 H          -6.2581    3.1938    1.2744 H       1  UNL1        0.0618
     52 H          -4.8312    1.2425    1.0892 H       1  UNL1        0.0624
     53 H           1.5148   -2.6702   -1.2276 H       1  UNL1        0.0315
     54 H          -0.2258   -2.9235   -1.1098 H       1  UNL1        0.0315
     55 H          -0.0559   -3.0173    1.3137 H       1  UNL1        0.0266
     56 H           1.6841   -2.7733    1.1928 H       1  UNL1        0.0266
     57 H           0.1696   -5.1175    0.0921 H       1  UNL1        0.0230
     58 H           1.1650   -5.1282    1.5281 H       1  UNL1        0.0230
     59 H           1.8935   -4.8635   -0.0379 H       1  UNL1        0.0230
@<TRIPOS>UNITY_ATOM_ATTR
9 1
charge -1
@<TRIPOS>BOND
     1     1     2   ar
     2     1     6   ar
     3     2     3   ar
     4     3     4   ar
     5     3    11    1
     6     4     5   ar
     7     5     6   ar
     8     6     7    1
     9     7     8    1
    10     8     9   ar
    11     8    10   ar
    12    11    12    1
    13    12    13    1
    14    13    14    1
    15    14    15    1
    16    15    16    1
    17    16    17   ar
    18    16    19   ar
    19    17    18   ar
    20    18    21   ar
    21    19    20   ar
    22    19    31    1
    23    20    21   ar
    24    20    24   ar
    25    21    22   ar
    26    22    23   ar
    27    22    25    1
    28    23    24   ar
    29    25    26   ar
    30    25    30   ar
    31    26    27   ar
    32    27    28   ar
    33    28    29   ar
    34    29    30   ar
    35    31    32    1
    36    32    33    1
    37     1    34    1
    38     2    35    1
    39     4    36    1
    40     5    37    1
    41     7    38    1
    42     7    39    1
    43    12    40    1
    44    12    41    1
    45    13    42    1
    46    13    43    1
    47    14    44    1
    48    14    45    1
    49    17    46    1
    50    18    47    1
    51    26    48    1
    52    27    49    1
    53    28    50    1
    54    29    51    1
    55    30    52    1
    56    31    53    1
    57    31    54    1
    58    32    55    1
    59    32    56    1
    60    33    57    1
    61    33    58    1
    62    33    59    1
@<TRIPOS>MOLECULE
BDB50132563
 51 53 0 0 0
SMALL
GASTEIGER

@<TRIPOS>ATOM
      1 C           2.7210   -0.6550    0.4930 C.ar    1  UNL1        0.1934
      2 C           1.3270   -0.6980    0.2420 C.ar    1  UNL1        0.0538
      3 N           3.1420    0.6050    0.6880 N.ar    1  UNL1       -0.0730
      4 C           0.9230    0.6200    0.3230 C.ar    1  UNL1        0.1744
      5 O           2.0120    1.3980    0.5780 O.2     1  UNL1       -0.3537
      6 C          -0.3920    1.0740    0.1590 C.ar    1  UNL1        0.0400
      7 C          -1.3410    0.0460   -0.0740 C.ar    1  UNL1        0.1319
      8 C           3.6640   -1.7950    0.5300 C.3     1  UNL1        0.4380
      9 O          -2.6650    0.3790   -0.2540 O.3     1  UNL1       -0.4777
     10 C           0.3750   -1.6830   -0.0550 C.ar    1  UNL1       -0.0422
     11 C          -0.9700   -1.3080   -0.2310 C.ar    1  UNL1       -0.0045
     12 C          -3.3490    0.6390    0.9990 C.3     1  UNL1        0.1641
     13 C          -4.2310   -0.5640    1.4110 C.2     1  UNL1        0.0865
     14 O          -4.2250   -0.8200    2.6540 O.co2   1  UNL1       -0.5457
     15 C          -4.2530    1.8530    0.8430 C.ar    1  UNL1       -0.0017
     16 F           3.0440   -2.9760    0.7980 F       1  UNL1       -0.1643
     17 F           4.3050   -1.9600   -0.6580 F       1  UNL1       -0.1643
     18 F           4.6300   -1.6500    1.4760 F       1  UNL1       -0.1643
     19 O          -4.8610   -1.1600    0.4890 O.co2   1  UNL1       -0.5457
     20 C          -0.7350    2.5400    0.1810 C.3     1  UNL1       -0.0208
     21 C          -1.9570   -2.3890   -0.6190 C.3     1  UNL1       -0.0244
     22 C          -4.4450    2.7260    1.9250 C.ar    1  UNL1       -0.0547
     23 C          -4.9290    2.1130   -0.3590 C.ar    1  UNL1       -0.0547
     24 C          -1.0510    3.0840   -1.2130 C.3     1  UNL1       -0.0517
     25 C          -2.2150   -3.3880    0.5120 C.3     1  UNL1       -0.0518
     26 C          -1.4130    4.5600   -1.1620 C.3     1  UNL1       -0.0650
     27 C          -3.2540   -4.4240    0.1130 C.3     1  UNL1       -0.0650
     28 C          -5.7530    3.2330   -0.4850 C.ar    1  UNL1       -0.0614
     29 C          -5.2690    3.8460    1.7970 C.ar    1  UNL1       -0.0614
     30 C          -5.9200    4.1020    0.5920 C.ar    1  UNL1       -0.0617
     31 H           0.6571   -2.6717   -0.1436 H       1  UNL1        0.0629
     32 H          -2.6059    0.8093    1.7498 H       1  UNL1        0.0848
     33 H           0.0963    3.0818    0.5813 H       1  UNL1        0.0315
     34 H          -1.6093    2.6622    0.7856 H       1  UNL1        0.0315
     35 H          -1.5686   -2.9202   -1.4627 H       1  UNL1        0.0314
     36 H          -2.8869   -1.9108   -0.8459 H       1  UNL1        0.0314
     37 H          -3.9729    2.5385    2.8233 H       1  UNL1        0.0622
     38 H          -4.8159    1.4697   -1.1580 H       1  UNL1        0.0622
     39 H          -1.8748    2.5372   -1.6219 H       1  UNL1        0.0266
     40 H          -0.1803    2.9711   -1.8246 H       1  UNL1        0.0266
     41 H          -2.5659   -2.8568    1.3720 H       1  UNL1        0.0266
     42 H          -1.2984   -3.8966    0.7267 H       1  UNL1        0.0266
     43 H          -2.2831    4.6930   -0.5537 H       1  UNL1        0.0230
     44 H          -1.6128    4.9127   -2.1523 H       1  UNL1        0.0230
     45 H          -0.5978    5.1129   -0.7442 H       1  UNL1        0.0230
     46 H          -4.1799   -3.9345   -0.1063 H       1  UNL1        0.0230
     47 H          -3.3973   -5.1139    0.9182 H       1  UNL1        0.0230
     48 H          -2.9160   -4.9526   -0.7537 H       1  UNL1        0.0230
     49 H          -6.2390    3.4177   -1.3765 H       1  UNL1        0.0618
     50 H          -5.3961    4.4857    2.5968 H       1  UNL1        0.0618
     51 H          -6.5244    4.9331    0.4971 H       1  UNL1        0.0618
@<TRIPOS>UNITY_ATOM_ATTR
19 1
charge -1
@<TRIPOS>BOND
     1     1     2   ar
     2     1     3   ar
     3     1     8    1
     4     2     4   ar
     5     2    10   ar
     6     3     5   ar
     7     4     5   ar
     8     4     6   ar
     9     6     7   ar
    10     6    20    1
    11     7     9    1
    12     7    11   ar
    13     8    16    1
    14     8    17    1
    15     8    18    1
    16     9    12    1
    17    10    11   ar
    18    11    21    1
    19    12    13    1
    20    12    15    1
    21    13    14   ar
    22    13    19   ar
    23    15    22   ar
    24    15    23   ar
    25    20    24    1
    26    21    25    1
    27    22    29   ar
    28    23    28   ar
    29    24    26    1
    30    25    27    1
    31    28    30   ar
    32    29    30   ar
    33    10    31    1
    34    12    32    1
    35    20    33    1
    36    20    34    1
    37    21    35    1
    38    21    36    1
    39    22    37    1
    40    23    38    1
    41    24    39    1
    42    24    40    1
    43    25    41    1
    44    25    42    1
    45    26    43    1
    46    26    44    1
    47    26    45    1
    48    27    46    1
    49    27    47    1
    50    27    48    1
    51    28    49    1
    52    29    50    1
    53    30    51    1
@<TRIPOS>MOLECULE
BDB50109547
 54 57 0 0 0
SMALL
GASTEIGER

@<TRIPOS>ATOM
      1 N           2.4660   -1.0880    0.4500 N.ar    1  UNL1       -0.3365
      2 C           1.8430   -0.4630    1.5130 C.ar    1  UNL1        0.0502
      3 C           2.5770   -0.2310   -0.6280 C.ar    1  UNL1        0.0502
      4 C           1.5550    0.8410    1.1070 C.ar    1  UNL1        0.0076
      5 C           2.0160    0.9870   -0.2380 C.ar    1  UNL1        0.0076
      6 C          -2.5150   -8.9920    0.8650 C.2     1  UNL1        0.0707
      7 C          -1.3610   -9.8990    0.3550 C.3     1  UNL1        0.1016
      8 O          -3.2500   -8.4550   -0.0120 O.co2   1  UNL1       -0.5471
      9 C          -0.7360   -9.3650   -0.9370 C.3     1  UNL1        0.0040
     10 C           2.9390   -2.4620    0.4650 C.3     1  UNL1        0.0580
     11 C           0.0960   -8.1240   -0.7220 C.ar    1  UNL1       -0.0443
     12 O          -2.5810   -8.8930    2.1270 O.co2   1  UNL1       -0.5471
     13 C           1.6070   -5.8010   -0.2370 C.ar    1  UNL1        0.1206
     14 C           1.5030   -0.9330    2.7940 C.ar    1  UNL1       -0.0376
     15 C           3.1180   -0.4210   -1.9110 C.ar    1  UNL1       -0.0376
     16 O          -1.8490  -11.2320    0.0620 O.3     1  UNL1       -0.3707
     17 C          -0.4740   -6.8550   -0.8780 C.ar    1  UNL1       -0.0550
     18 C           1.4340   -8.2200   -0.3250 C.ar    1  UNL1       -0.0550
     19 C           2.0010    2.0560   -1.1610 C.ar    1  UNL1       -0.0520
     20 C           0.9100    1.7100    2.0150 C.ar    1  UNL1       -0.0520
     21 C           0.2760   -5.6990   -0.6400 C.ar    1  UNL1       -0.0197
     22 C           2.1830   -7.0660   -0.0890 C.ar    1  UNL1       -0.0197
     23 O           2.4430   -4.7550    0.0440 O.3     1  UNL1       -0.4902
     24 C           1.8670   -3.4480    0.0190 C.3     1  UNL1        0.1074
     25 C          -2.2530  -11.9420    1.2320 C.3     1  UNL1        0.0457
     26 C           0.5690    1.2510    3.2910 C.ar    1  UNL1       -0.0611
     27 C           2.5400    1.8760   -2.4390 C.ar    1  UNL1       -0.0611
     28 C           3.0900    0.6520   -2.8060 C.ar    1  UNL1       -0.0598
     29 C           0.8610   -0.0550    3.6720 C.ar    1  UNL1       -0.0598
     30 C          -2.5630  -13.3720    0.8310 C.3     1  UNL1       -0.0415
     31 H          -0.6302   -9.9129    1.1364 H       1  UNL1        0.0661
     32 H          -1.5218   -9.1334   -1.6253 H       1  UNL1        0.0342
     33 H          -0.0845  -10.1251   -1.3147 H       1  UNL1        0.0342
     34 H           3.2422   -2.7106    1.4606 H       1  UNL1        0.0525
     35 H           3.7560   -2.5342   -0.2222 H       1  UNL1        0.0525
     36 H           1.7217   -1.9006    3.0784 H       1  UNL1        0.0638
     37 H           3.5252   -1.3288   -2.1850 H       1  UNL1        0.0638
     38 H          -1.4596   -6.7716   -1.1722 H       1  UNL1        0.0621
     39 H           1.8692   -9.1482   -0.2061 H       1  UNL1        0.0621
     40 H           1.5941    2.9659   -0.8936 H       1  UNL1        0.0624
     41 H           0.6914    2.6797    1.7377 H       1  UNL1        0.0624
     42 H          -0.1559   -4.7698   -0.7627 H       1  UNL1        0.0654
     43 H           3.1711   -7.1475    0.1974 H       1  UNL1        0.0654
     44 H           1.5437   -3.2110   -0.9731 H       1  UNL1        0.0714
     45 H           1.0186   -3.3994    0.6693 H       1  UNL1        0.0714
     46 H          -3.1255  -11.4853    1.6504 H       1  UNL1        0.0557
     47 H          -1.4739  -11.9228    1.9652 H       1  UNL1        0.0557
     48 H           0.0975    1.8852    3.9547 H       1  UNL1        0.0618
     49 H           2.5296    2.6564   -3.1142 H       1  UNL1        0.0618
     50 H           3.4831    0.5346   -3.7530 H       1  UNL1        0.0618
     51 H           0.5999   -0.3800    4.6161 H       1  UNL1        0.0618
     52 H          -3.3428  -13.3759    0.0983 H       1  UNL1        0.0252
     53 H          -2.8796  -13.9232    1.6918 H       1  UNL1        0.0252
     54 H          -1.6853  -13.8255    0.4201 H       1  UNL1        0.0252
@<TRIPOS>UNITY_ATOM_ATTR
12 1
charge -1
@<TRIPOS>BOND
     1     1     2   ar
     2     1     3   ar
     3     1    10    1
     4     2     4   ar
     5     2    14   ar
     6     3     5   ar
     7     3    15   ar
     8     4     5   ar
     9     4    20   ar
    10     5    19   ar
    11     6     7    1
    12     6     8   ar
    13     6    12   ar
    14     7     9    1
    15     7    16    1
    16     9    11    1
    17    10    24    1
    18    11    17   ar
    19    11    18   ar
    20    13    21   ar
    21    13    22   ar
    22    13    23    1
    23    14    29   ar
    24    15    28   ar
    25    16    25    1
    26    17    21   ar
    27    18    22   ar
    28    19    27   ar
    29    20    26   ar
    30    23    24    1
    31    25    30    1
    32    26    29   ar
    33    27    28   ar
    34     7    31    1
    35     9    32    1
    36     9    33    1
    37    10    34    1
    38    10    35    1
    39    14    36    1
    40    15    37    1
    41    17    38    1
    42    18    39    1
    43    19    40    1
    44    20    41    1
    45    21    42    1
    46    22    43    1
    47    24    44    1
    48    24    45    1
    49    25    46    1
    50    25    47    1
    51    26    48    1
    52    27    49    1
    53    28    50    1
    54    29    51    1
    55    30    52    1
    56    30    53    1
    57    30    54    1
@<TRIPOS>MOLECULE
BDB50172003
 53 55 0 0 0
SMALL
GASTEIGER

@<TRIPOS>ATOM
      1 C           1.3840   -3.2080   -0.1180 C.3     1  UNL1        0.1557
      2 O          -0.0080   -2.7300   -0.1320 O.3     1  UNL1       -0.4790
      3 C           2.2780   -2.0470   -0.6140 C.3     1  UNL1        0.0216
      4 C           1.3690   -0.8990   -0.3770 C.ar    1  UNL1        0.0019
      5 C           1.7010   -3.6300    1.3680 C.2     1  UNL1        0.0856
      6 C           8.6240   10.0600    0.3590 C.3     1  UNL1        0.5752
      7 C           0.0900   -1.3660   -0.1380 C.ar    1  UNL1        0.1254
      8 C           3.9300    9.0170    0.3920 C.ar    1  UNL1        0.0860
      9 C           4.9990    9.9170    0.4580 C.ar    1  UNL1        0.0023
     10 O           7.2610   10.4440    0.4450 O.3     1  UNL1       -0.4057
     11 C           6.3160    9.4620    0.3660 C.ar    1  UNL1        0.1316
     12 C           1.6400    0.4590   -0.4170 C.ar    1  UNL1       -0.0132
     13 C           4.1590    7.6430    0.2330 C.ar    1  UNL1        0.1390
     14 O           1.0720   -4.6410    1.8010 O.co2   1  UNL1       -0.5457
     15 C           1.4610   -4.4750   -1.0230 C.3     1  UNL1       -0.0010
     16 C          -0.9720   -0.5090    0.0570 C.ar    1  UNL1       -0.0162
     17 C           5.4790    7.1940    0.1420 C.ar    1  UNL1       -0.0150
     18 F           9.3940   11.1660    0.4570 F       1  UNL1       -0.1328
     19 F           8.9560    9.2250    1.3660 F       1  UNL1       -0.1328
     20 F           8.8870    9.4670   -0.8250 F       1  UNL1       -0.1328
     21 C           0.5860    1.3530   -0.1980 C.ar    1  UNL1        0.1210
     22 CL          2.3260    9.6550    0.5130 Cl      1  UNL1       -0.0796
     23 O           2.5580   -2.9250    1.9760 O.co2   1  UNL1       -0.5457
     24 C           6.5500    8.0970    0.2080 C.ar    1  UNL1       -0.0161
     25 C          -0.7150    0.8630    0.0270 C.ar    1  UNL1       -0.0165
     26 O           3.0550    6.8360    0.1790 O.3     1  UNL1       -0.4904
     27 C           1.8940    4.7670   -0.0170 C.3     1  UNL1        0.0157
     28 O           0.6890    2.7190   -0.1910 O.3     1  UNL1       -0.4918
     29 C           3.2620    5.4350    0.0130 C.3     1  UNL1        0.0927
     30 C           2.0090    3.2590   -0.1920 C.3     1  UNL1        0.0927
     31 C           2.8840   -5.0350   -1.1300 C.3     1  UNL1       -0.0587
     32 C           0.8880   -4.2510   -2.4310 C.3     1  UNL1       -0.0587
     33 H           2.5242   -2.1507   -1.6501 H       1  UNL1        0.0357
     34 H           3.2298   -1.9742   -0.1305 H       1  UNL1        0.0357
     35 H           4.8128   10.9252    0.5756 H       1  UNL1        0.0670
     36 H           2.5951    0.8026   -0.6036 H       1  UNL1        0.0658
     37 H           0.8450   -5.1972   -0.5292 H       1  UNL1        0.0338
     38 H          -1.9252   -0.8695    0.2197 H       1  UNL1        0.0655
     39 H           5.6680    6.1862    0.0249 H       1  UNL1        0.0656
     40 H           7.5188    7.7482    0.1391 H       1  UNL1        0.0655
     41 H          -1.4904    1.5284    0.1720 H       1  UNL1        0.0655
     42 H           1.3294    5.1689   -0.8322 H       1  UNL1        0.0331
     43 H           1.4079    4.9589    0.9167 H       1  UNL1        0.0331
     44 H           3.8371    5.0520    0.8300 H       1  UNL1        0.0697
     45 H           3.7954    5.2391   -0.8936 H       1  UNL1        0.0697
     46 H           2.5741    2.8408    0.6146 H       1  UNL1        0.0697
     47 H           2.5079    3.0258   -1.1094 H       1  UNL1        0.0697
     48 H           3.5117   -4.3221   -1.6225 H       1  UNL1        0.0234
     49 H           2.8678   -5.9449   -1.6928 H       1  UNL1        0.0234
     50 H           3.2657   -5.2289   -0.1494 H       1  UNL1        0.0234
     51 H           1.4863   -3.5310   -2.9492 H       1  UNL1        0.0234
     52 H          -0.1166   -3.8908   -2.3541 H       1  UNL1        0.0234
     53 H           0.8953   -5.1752   -2.9702 H       1  UNL1        0.0234
@<TRIPOS>UNITY_ATOM_ATTR
23 1
charge -1
@<TRIPOS>BOND
     1     1     2    1
     2     1     3    1
     3     1     5    1
     4     1    15    1
     5     2     7    1
     6     3     4    1
     7     4     7   ar
     8     4    12   ar
     9     5    14   ar
    10     5    23   ar
    11     6    10    1
    12     6    18    1
    13     6    19    1
    14     6    20    1
    15     7    16   ar
    16     8     9   ar
    17     8    13   ar
    18     8    22    1
    19     9    11   ar
    20    10    11    1
    21    11    24   ar
    22    12    21   ar
    23    13    17   ar
    24    13    26    1
    25    15    31    1
    26    15    32    1
    27    16    25   ar
    28    17    24   ar
    29    21    25   ar
    30    21    28    1
    31    26    29    1
    32    27    29    1
    33    27    30    1
    34    28    30    1
    35     3    33    1
    36     3    34    1
    37     9    35    1
    38    12    36    1
    39    15    37    1
    40    16    38    1
    41    17    39    1
    42    24    40    1
    43    25    41    1
    44    27    42    1
    45    27    43    1
    46    29    44    1
    47    29    45    1
    48    30    46    1
    49    30    47    1
    50    31    48    1
    51    31    49    1
    52    31    50    1
    53    32    51    1
    54    32    52    1
    55    32    53    1
@<TRIPOS>MOLECULE
BDB24566
 34 35 0 0 0
SMALL
GASTEIGER

@<TRIPOS>ATOM
      1 C           1.3850   -0.4680    0.0430 C.ar    1  UNL1        0.1287
      2 C           0.2290   -1.1790    0.2940 C.ar    1  UNL1        0.0154
      3 C           0.1270    1.4100   -0.4430 C.ar    1  UNL1        0.1916
      4 N           1.3330    0.8280   -0.3170 N.ar    1  UNL1       -0.2067
      5 N          -1.0410    0.7910   -0.2370 N.ar    1  UNL1       -0.2101
      6 C          -0.9490   -0.4900    0.1340 C.ar    1  UNL1        0.1354
      7 CL         -2.4570   -1.2650    0.4080 Cl      1  UNL1       -0.0618
      8 N           2.6200   -1.1340    0.1920 N.pl3   1  UNL1       -0.2991
      9 C           3.9280   -0.6320    0.3790 C.ar    1  UNL1        0.0356
     10 C           5.0600   -1.4420    0.0820 C.ar    1  UNL1       -0.0264
     11 C           6.3670   -0.9310    0.2880 C.ar    1  UNL1       -0.0458
     12 C           6.5310    0.3880    0.7360 C.ar    1  UNL1       -0.0585
     13 C           5.4270    1.1900    0.9990 C.ar    1  UNL1       -0.0597
     14 C           4.1430    0.6820    0.8230 C.ar    1  UNL1       -0.0402
     15 C           4.8620   -2.8490   -0.4330 C.3     1  UNL1       -0.0377
     16 C           7.6020   -1.7480    0.0180 C.3     1  UNL1       -0.0394
     17 S           0.0470    3.1090   -0.9570 S.3     1  UNL1       -0.0801
     18 C           1.5950    3.7300   -0.2270 C.3     1  UNL1        0.0407
     19 C           1.5800    5.2360   -0.4890 C.2     1  UNL1        0.0520
     20 O           2.2020    5.6090   -1.5260 O.co2   1  UNL1       -0.5490
     21 O           0.9970    5.9360    0.3900 O.co2   1  UNL1       -0.5490
     22 H           0.2482   -2.1691    0.5845 H       1  UNL1        0.0682
     23 H           2.5605   -2.1162    0.1603 H       1  UNL1        0.1536
     24 H           7.4813    0.7668    0.8717 H       1  UNL1        0.0620
     25 H           5.5588    2.1605    1.3242 H       1  UNL1        0.0618
     26 H           3.3303    1.2856    1.0236 H       1  UNL1        0.0636
     27 H           3.8153   -3.0519   -0.5229 H       1  UNL1        0.0278
     28 H           5.3027   -3.5443    0.2505 H       1  UNL1        0.0278
     29 H           5.3279   -2.9469   -1.3913 H       1  UNL1        0.0278
     30 H           7.3180   -2.7245   -0.3146 H       1  UNL1        0.0278
     31 H           8.1783   -1.8306    0.9157 H       1  UNL1        0.0278
     32 H           8.1876   -1.2697   -0.7391 H       1  UNL1        0.0278
     33 H           2.4416    3.2749   -0.6972 H       1  UNL1        0.0441
     34 H           1.6660    3.5044    0.8165 H       1  UNL1        0.0441
@<TRIPOS>UNITY_ATOM_ATTR
21 1
charge -1
@<TRIPOS>BOND
     1     1     2   ar
     2     1     4   ar
     3     1     8    1
     4     2     6   ar
     5     3     4   ar
     6     3     5   ar
     7     3    17    1
     8     5     6   ar
     9     6     7    1
    10     8     9    1
    11     9    10   ar
    12     9    14   ar
    13    10    11   ar
    14    10    15    1
    15    11    12   ar
    16    11    16    1
    17    12    13   ar
    18    13    14   ar
    19    17    18    1
    20    18    19    1
    21    19    20   ar
    22    19    21   ar
    23     2    22    1
    24     8    23    1
    25    12    24    1
    26    13    25    1
    27    14    26    1
    28    15    27    1
    29    15    28    1
    30    15    29    1
    31    16    30    1
    32    16    31    1
    33    16    32    1
    34    18    33    1
    35    18    34    1
