@<TRIPOS>MOLECULE
BDB50013216
 60 61 0 0 0
SMALL
GASTEIGER

@<TRIPOS>ATOM
      1 N           0.6798   -0.9346   -0.0475 N.ar    1  UNL1       -0.3469
      2 C           0.0902    1.1902    0.0636 C.ar    1  UNL1       -0.0186
      3 C           1.1687    0.2977    0.1017 C.ar    1  UNL1        0.0253
      4 C          -1.0460    0.4110   -0.0752 C.ar    1  UNL1        0.0031
      5 C          -0.6462   -0.9241   -0.1380 C.ar    1  UNL1        0.0131
      6 C           0.0804    2.7311    0.1908 C.3     1  UNL1       -0.0231
      7 C           4.4403    8.8759   -0.0706 C.2     1  UNL1        0.0442
      8 C          -2.4843    0.8323   -0.0834 C.ar    1  UNL1       -0.0160
      9 C           4.3140    7.3830   -0.0536 C.3     1  UNL1        0.0130
     10 C           1.4724   -2.1462   -0.0814 C.3     1  UNL1        0.0286
     11 O           3.3370    9.6511   -0.2239 O.co2   1  UNL1       -0.5497
     12 C           2.6615    0.5986    0.3219 C.3     1  UNL1       -0.0059
     13 O           5.5543    9.4006    0.0314 O.co2   1  UNL1       -0.5497
     14 C           2.8334    6.9688    0.0590 C.3     1  UNL1        0.0626
     15 C           2.7654    5.4429    0.0438 C.3     1  UNL1       -0.0004
     16 C          -3.4690   -0.1379   -0.0920 C.ar    1  UNL1       -0.0513
     17 C          -2.8587    2.1802   -0.0443 C.ar    1  UNL1       -0.0513
     18 C           1.4375    3.3936    0.0836 C.3     1  UNL1       -0.0227
     19 C          -5.1801    1.5557   -0.0191 C.ar    1  UNL1        0.1234
     20 C          -4.1977    2.5382   -0.0120 C.ar    1  UNL1       -0.0259
     21 C          -4.8161    0.2165   -0.0626 C.ar    1  UNL1       -0.0259
     22 F          -6.4761    1.9011    0.0157 F       1  UNL1       -0.2055
     23 C           1.3163    4.9019    0.0887 C.3     1  UNL1        0.0579
     24 O           2.2847    7.4536    1.2878 O.3     1  UNL1       -0.3913
     25 O           0.6176    5.3001    1.2747 O.3     1  UNL1       -0.3917
     26 C           0.5493   -3.3647    0.1058 C.3     1  UNL1       -0.0445
     27 C           2.1929   -2.2787   -1.4409 C.3     1  UNL1       -0.0445
     28 C           3.5732    1.1030   -0.8309 C.3     1  UNL1       -0.0573
     29 C           3.2746    0.3717    1.7201 C.3     1  UNL1       -0.0573
     30 H          -1.2622   -1.7463   -0.2360 H       1  UNL1        0.0815
     31 H          -0.3366    2.9823    1.1436 H       1  UNL1        0.0315
     32 H          -0.4943    3.0944   -0.6354 H       1  UNL1        0.0315
     33 H           4.8536    6.9933    0.7842 H       1  UNL1        0.0350
     34 H           4.7152    6.9909   -0.9648 H       1  UNL1        0.0350
     35 H           2.1983   -2.1031    0.7035 H       1  UNL1        0.0522
     36 H           2.1836    1.2229   -0.4039 H       1  UNL1        0.0358
     37 H           2.2745    7.3796   -0.7557 H       1  UNL1        0.0598
     38 H           3.2953    5.0695    0.8950 H       1  UNL1        0.0315
     39 H           3.2022    5.1121   -0.8753 H       1  UNL1        0.0315
     40 H          -3.2036   -1.1348   -0.1205 H       1  UNL1        0.0624
     41 H          -2.1324    2.9134   -0.0395 H       1  UNL1        0.0624
     42 H           1.9048    3.0848   -0.8281 H       1  UNL1        0.0293
     43 H           2.0240    3.0996    0.9289 H       1  UNL1        0.0293
     44 H          -4.4648    3.5346    0.0173 H       1  UNL1        0.0646
     45 H          -5.5430   -0.5160   -0.0731 H       1  UNL1        0.0646
     46 H           0.7636    5.2878   -0.7423 H       1  UNL1        0.0594
     47 H           2.7855    7.0861    2.0328 H       1  UNL1        0.2098
     48 H           1.0891    4.9681    2.0546 H       1  UNL1        0.2098
     49 H          -0.1695   -3.3927   -0.6863 H       1  UNL1        0.0249
     50 H           0.0423   -3.2872    1.0449 H       1  UNL1        0.0249
     51 H           1.1337   -4.2608    0.0889 H       1  UNL1        0.0249
     52 H           1.4675   -2.3218   -2.2263 H       1  UNL1        0.0249
     53 H           2.7797   -3.1734   -1.4478 H       1  UNL1        0.0249
     54 H           2.8307   -1.4327   -1.5905 H       1  UNL1        0.0249
     55 H           4.5640    0.7229   -0.6944 H       1  UNL1        0.0236
     56 H           3.5975    2.1727   -0.8244 H       1  UNL1        0.0236
     57 H           3.1858    0.7608   -1.7678 H       1  UNL1        0.0236
     58 H           3.6225   -0.6372    1.7975 H       1  UNL1        0.0236
     59 H           2.5315    0.5512    2.4688 H       1  UNL1        0.0236
     60 H           4.0948    1.0438    1.8633 H       1  UNL1        0.0236
@<TRIPOS>UNITY_ATOM_ATTR
11 1
charge -1
@<TRIPOS>BOND
     1     2     3   ar
     2     3     1   ar
     3     4     5   ar
     4     5     1   ar
     5     6     2    1
     6     7     9    1
     7     8     4    1
     8     9    14    1
     9    10     1    1
    10    11     7   ar
    11    12     3    1
    12    13     7   ar
    13    14    15    1
    14    15    23    1
    15    16     8   ar
    16    17     8   ar
    17    18     6    1
    18    19    20   ar
    19    20    17   ar
    20    21    16   ar
    21    22    19    1
    22    23    18    1
    23    14    24    1
    24    25    23    1
    25    26    10    1
    26    27    10    1
    27    28    12    1
    28    29    12    1
    29     2     4   ar
    30    21    19   ar
    31     5    30    1
    32     6    31    1
    33     6    32    1
    34     9    33    1
    35     9    34    1
    36    10    35    1
    37    12    36    1
    38    14    37    1
    39    15    38    1
    40    15    39    1
    41    16    40    1
    42    17    41    1
    43    18    42    1
    44    18    43    1
    45    20    44    1
    46    21    45    1
    47    23    46    1
    48    24    47    1
    49    25    48    1
    50    26    49    1
    51    26    50    1
    52    26    51    1
    53    27    52    1
    54    27    53    1
    55    27    54    1
    56    28    55    1
    57    28    56    1
    58    28    57    1
    59    29    58    1
    60    29    59    1
    61    29    60    1
@<TRIPOS>MOLECULE
BDB50013211
 61 63 0 0 0
SMALL
GASTEIGER

@<TRIPOS>ATOM
      1 N           0.7402   -0.9096    0.0095 N.ar    1  UNL1       -0.3190
      2 C           0.0995    1.2117    0.0695 C.ar    1  UNL1       -0.0183
      3 C           1.2005    0.3490    0.1247 C.ar    1  UNL1        0.0301
      4 C          -1.0214    0.4032   -0.0486 C.ar    1  UNL1        0.0034
      5 C          -0.5848   -0.9188   -0.0736 C.ar    1  UNL1        0.0181
      6 C           0.0583    2.7578    0.1659 C.3     1  UNL1       -0.0231
      7 C           4.4424    8.8758   -0.0698 C.2     1  UNL1        0.0442
      8 C          -2.4708    0.8144   -0.0710 C.ar    1  UNL1       -0.0160
      9 C           4.3117    7.3840   -0.0567 C.3     1  UNL1        0.0130
     10 C           1.5224   -2.1234   -0.0229 C.ar    1  UNL1        0.0463
     11 O           3.3409    9.6536   -0.2233 O.co2   1  UNL1       -0.5497
     12 C           2.6716    0.7351    0.3405 C.3     1  UNL1       -0.0056
     13 O           5.5577    9.3977    0.0325 O.co2   1  UNL1       -0.5497
     14 C           2.8292    6.9794    0.0558 C.3     1  UNL1        0.0626
     15 C           2.7475    5.4584    0.0294 C.3     1  UNL1       -0.0004
     16 C          -3.4553   -0.1654   -0.0769 C.ar    1  UNL1       -0.0513
     17 C          -2.8549    2.1540   -0.0475 C.ar    1  UNL1       -0.0513
     18 C           1.4064    3.4357    0.0486 C.3     1  UNL1       -0.0227
     19 C          -5.1734    1.5255   -0.0250 C.ar    1  UNL1        0.1234
     20 C          -4.1962    2.5113   -0.0231 C.ar    1  UNL1       -0.0259
     21 C          -4.8017    0.1867   -0.0570 C.ar    1  UNL1       -0.0259
     22 F          -6.4712    1.8674    0.0042 F       1  UNL1       -0.2055
     23 C           1.2928    4.9348    0.0750 C.3     1  UNL1        0.0579
     24 O           2.2851    7.4600    1.2875 O.3     1  UNL1       -0.3913
     25 O           0.6061    5.3197    1.2718 O.3     1  UNL1       -0.3917
     26 C           2.9049   -2.1315   -0.1109 C.ar    1  UNL1       -0.0379
     27 C           0.8474   -3.3451    0.0279 C.ar    1  UNL1       -0.0379
     28 C           3.5875    1.1231   -0.8524 C.3     1  UNL1       -0.0573
     29 C           3.2400    0.7585    1.7785 C.3     1  UNL1       -0.0573
     30 C           1.5566   -4.5386    0.0051 C.ar    1  UNL1       -0.0598
     31 C           3.6217   -3.3228   -0.1402 C.ar    1  UNL1       -0.0598
     32 C           2.9442   -4.5315   -0.0781 C.ar    1  UNL1       -0.0616
     33 H          -1.1840   -1.7560   -0.1441 H       1  UNL1        0.0819
     34 H          -0.3659    3.0214    1.1122 H       1  UNL1        0.0315
     35 H          -0.5234    3.0967   -0.6658 H       1  UNL1        0.0315
     36 H           4.8499    6.9896    0.7798 H       1  UNL1        0.0350
     37 H           4.7122    6.9910   -0.9678 H       1  UNL1        0.0350
     38 H           2.6889    0.1608   -0.5621 H       1  UNL1        0.0358
     39 H           2.2734    7.4001   -0.7560 H       1  UNL1        0.0598
     40 H           3.2761    5.0730    0.8761 H       1  UNL1        0.0315
     41 H           3.1795    5.1288   -0.8924 H       1  UNL1        0.0315
     42 H          -3.1865   -1.1616   -0.0962 H       1  UNL1        0.0624
     43 H          -2.1321    2.8906   -0.0482 H       1  UNL1        0.0624
     44 H           1.8612    3.1408   -0.8739 H       1  UNL1        0.0293
     45 H           1.9986    3.1364    0.8880 H       1  UNL1        0.0293
     46 H          -4.4660    3.5072   -0.0036 H       1  UNL1        0.0646
     47 H          -5.5260   -0.5484   -0.0660 H       1  UNL1        0.0646
     48 H           0.7355    5.3396   -0.7438 H       1  UNL1        0.0594
     49 H           2.7832    7.0834    2.0298 H       1  UNL1        0.2098
     50 H           1.0804    4.9714    2.0429 H       1  UNL1        0.2098
     51 H           3.4135   -1.2347   -0.1557 H       1  UNL1        0.0638
     52 H          -0.1830   -3.3608    0.0826 H       1  UNL1        0.0638
     53 H           4.1441    2.0024   -0.6035 H       1  UNL1        0.0236
     54 H           2.9860    1.3144   -1.7164 H       1  UNL1        0.0236
     55 H           4.2634    0.3198   -1.0591 H       1  UNL1        0.0236
     56 H           2.8723    1.6214    2.2934 H       1  UNL1        0.0236
     57 H           4.3086    0.7951    1.7391 H       1  UNL1        0.0236
     58 H           2.9323   -0.1248    2.2981 H       1  UNL1        0.0236
     59 H           1.0503   -5.4367    0.0502 H       1  UNL1        0.0618
     60 H           4.6514   -3.3076   -0.2077 H       1  UNL1        0.0618
     61 H           3.4675   -5.4209   -0.0936 H       1  UNL1        0.0618
@<TRIPOS>UNITY_ATOM_ATTR
11 1
charge -1
@<TRIPOS>BOND
     1     2     3   ar
     2     3     1   ar
     3     4     5   ar
     4     5     1   ar
     5     6     2    1
     6     7     9    1
     7     8     4    1
     8     9    14    1
     9    10     1    1
    10    11     7   ar
    11    12     3    1
    12    13     7   ar
    13    14    15    1
    14    15    23    1
    15    16     8   ar
    16    17     8   ar
    17    18     6    1
    18    19    20   ar
    19    20    17   ar
    20    21    16   ar
    21    22    19    1
    22    18    23    1
    23    14    24    1
    24    23    25    1
    25    26    10   ar
    26    27    10   ar
    27    28    12    1
    28    29    12    1
    29    30    27   ar
    30    31    26   ar
    31    32    31   ar
    32     2     4   ar
    33    30    32   ar
    34    21    19   ar
    35     5    33    1
    36     6    34    1
    37     6    35    1
    38     9    36    1
    39     9    37    1
    40    12    38    1
    41    14    39    1
    42    15    40    1
    43    15    41    1
    44    16    42    1
    45    17    43    1
    46    18    44    1
    47    18    45    1
    48    20    46    1
    49    21    47    1
    50    23    48    1
    51    24    49    1
    52    25    50    1
    53    26    51    1
    54    27    52    1
    55    28    53    1
    56    28    54    1
    57    28    55    1
    58    29    56    1
    59    29    57    1
    60    29    58    1
    61    30    59    1
    62    31    60    1
    63    32    61    1
@<TRIPOS>MOLECULE
BDB50013210
 59 61 0 0 0
SMALL
GASTEIGER

@<TRIPOS>ATOM
      1 N           0.7456   -0.9198    0.0175 N.ar    1  UNL1       -0.3187
      2 C           0.1063    1.1975    0.0565 C.ar    1  UNL1        0.0038
      3 C           1.2098    0.3375    0.1031 C.ar    1  UNL1        0.0340
      4 C          -1.0156    0.3874   -0.0258 C.ar    1  UNL1        0.0074
      5 C          -0.5826   -0.9337   -0.0417 C.ar    1  UNL1        0.0184
      6 C           0.0540    2.6875    0.1092 C.2     1  UNL1       -0.0538
      7 C           4.0176    8.9879   -0.0571 C.2     1  UNL1        0.0442
      8 C          -2.4537    0.8096   -0.0422 C.ar    1  UNL1       -0.0157
      9 C           3.9464    7.4902    0.0186 C.3     1  UNL1        0.0130
     10 C           1.5268   -2.1335   -0.0205 C.ar    1  UNL1        0.0463
     11 C           1.1162    3.4575   -0.0559 C.2     1  UNL1       -0.0552
     12 O           2.8973    9.7113   -0.3131 O.co2   1  UNL1       -0.5497
     13 C           2.7042    0.6907    0.2910 C.3     1  UNL1       -0.0053
     14 O           5.1040    9.5611    0.0769 O.co2   1  UNL1       -0.5497
     15 C           2.4761    7.0254    0.0326 C.3     1  UNL1        0.0629
     16 C           2.4475    5.4941    0.0533 C.3     1  UNL1        0.0032
     17 C          -3.4497   -0.1592   -0.0529 C.ar    1  UNL1       -0.0513
     18 C          -2.8168    2.1541   -0.0203 C.ar    1  UNL1       -0.0513
     19 C          -5.1450    1.5535   -0.0152 C.ar    1  UNL1        0.1234
     20 C           1.0063    4.9338   -0.0380 C.3     1  UNL1        0.0760
     21 C          -4.1548    2.5270   -0.0060 C.ar    1  UNL1       -0.0259
     22 C          -4.7913    0.2098   -0.0416 C.ar    1  UNL1       -0.0259
     23 F          -6.4392    1.9114    0.0016 F       1  UNL1       -0.2055
     24 O           1.8158    7.5285    1.1971 O.3     1  UNL1       -0.3913
     25 O           0.1807    5.3193    1.0683 O.3     1  UNL1       -0.3877
     26 C           2.9112   -2.1391   -0.1242 C.ar    1  UNL1       -0.0379
     27 C           0.8561   -3.3539    0.0405 C.ar    1  UNL1       -0.0379
     28 C           3.4017    1.5818   -0.7631 C.3     1  UNL1       -0.0573
     29 C           3.0990    0.9763    1.7547 C.3     1  UNL1       -0.0573
     30 C           1.5667   -4.5473    0.0131 C.ar    1  UNL1       -0.0598
     31 C           3.6285   -3.3288   -0.1568 C.ar    1  UNL1       -0.0598
     32 C           2.9531   -4.5383   -0.0840 C.ar    1  UNL1       -0.0616
     33 H          -1.1825   -1.7720   -0.0905 H       1  UNL1        0.0819
     34 H          -0.8570    3.1400    0.2833 H       1  UNL1        0.0622
     35 H           4.4302    7.1584    0.9134 H       1  UNL1        0.0350
     36 H           4.4352    7.0744   -0.8376 H       1  UNL1        0.0350
     37 H           2.0401    3.0208   -0.2001 H       1  UNL1        0.0598
     38 H           3.1584   -0.2438    0.0355 H       1  UNL1        0.0358
     39 H           1.9735    7.3936   -0.8373 H       1  UNL1        0.0598
     40 H           2.8924    5.1536    0.9649 H       1  UNL1        0.0318
     41 H           2.9903    5.1442   -0.7998 H       1  UNL1        0.0318
     42 H          -3.1928   -1.1586   -0.0693 H       1  UNL1        0.0624
     43 H          -2.0841    2.8808   -0.0146 H       1  UNL1        0.0624
     44 H           0.5450    5.3282   -0.9192 H       1  UNL1        0.0638
     45 H          -4.4126    3.5261    0.0114 H       1  UNL1        0.0646
     46 H          -5.5251   -0.5158   -0.0528 H       1  UNL1        0.0646
     47 H           2.2652    7.1994    1.9912 H       1  UNL1        0.2098
     48 H           0.5647    4.9802    1.8920 H       1  UNL1        0.2102
     49 H           3.4178   -1.2416   -0.1782 H       1  UNL1        0.0638
     50 H          -0.1737   -3.3710    0.1064 H       1  UNL1        0.0638
     51 H           3.0610    2.5907   -0.6589 H       1  UNL1        0.0236
     52 H           3.1658    1.2252   -1.7440 H       1  UNL1        0.0236
     53 H           4.4609    1.5461   -0.6157 H       1  UNL1        0.0236
     54 H           2.6691    1.9056    2.0652 H       1  UNL1        0.0236
     55 H           4.1647    1.0328    1.8321 H       1  UNL1        0.0236
     56 H           2.7371    0.1886    2.3819 H       1  UNL1        0.0236
     57 H           1.0621   -5.4460    0.0652 H       1  UNL1        0.0618
     58 H           4.6574   -3.3127   -0.2347 H       1  UNL1        0.0618
     59 H           3.4775   -5.4270   -0.1019 H       1  UNL1        0.0618
@<TRIPOS>UNITY_ATOM_ATTR
12 1
charge -1
@<TRIPOS>BOND
     1     2     3   ar
     2     3     1   ar
     3     4     5   ar
     4     5     1   ar
     5     6     2    1
     6     7     9    1
     7     8     4    1
     8     9    15    1
     9    10     1    1
    10    11     6    2
    11    12     7   ar
    12    13     3    1
    13    14     7   ar
    14    15    16    1
    15    16    20    1
    16    17     8   ar
    17    18     8   ar
    18    19    21   ar
    19    11    20    1
    20    21    18   ar
    21    22    17   ar
    22    23    19    1
    23    15    24    1
    24    20    25    1
    25    26    10   ar
    26    27    10   ar
    27    28    13    1
    28    29    13    1
    29    30    27   ar
    30    31    26   ar
    31    32    31   ar
    32     2     4   ar
    33    30    32   ar
    34    22    19   ar
    35     5    33    1
    36     6    34    1
    37     9    35    1
    38     9    36    1
    39    11    37    1
    40    13    38    1
    41    15    39    1
    42    16    40    1
    43    16    41    1
    44    17    42    1
    45    18    43    1
    46    20    44    1
    47    21    45    1
    48    22    46    1
    49    24    47    1
    50    25    48    1
    51    26    49    1
    52    27    50    1
    53    28    51    1
    54    28    52    1
    55    28    53    1
    56    29    54    1
    57    29    55    1
    58    29    56    1
    59    30    57    1
    60    31    58    1
    61    32    59    1
@<TRIPOS>MOLECULE
BDB50013217
 67 69 0 0 0
SMALL
GASTEIGER

@<TRIPOS>ATOM
      1 N           0.6995   -0.9262    0.0001 N.ar    1  UNL1       -0.3464
      2 C           0.1194    1.2074    0.0753 C.ar    1  UNL1       -0.0186
      3 C           1.1995    0.3100    0.1059 C.ar    1  UNL1        0.0253
      4 C          -1.0254    0.4203   -0.0256 C.ar    1  UNL1        0.0031
      5 C          -0.6291   -0.9085   -0.0675 C.ar    1  UNL1        0.0131
      6 C           0.0894    2.7524    0.1579 C.3     1  UNL1       -0.0231
      7 C           4.4431    8.8794   -0.0672 C.2     1  UNL1        0.0442
      8 C          -2.4673    0.8542   -0.0408 C.ar    1  UNL1       -0.0160
      9 C           4.3199    7.3870   -0.0394 C.3     1  UNL1        0.0130
     10 C           1.4766   -2.1646   -0.0607 C.3     1  UNL1        0.0343
     11 O           3.3378    9.6511   -0.2247 O.co2   1  UNL1       -0.5497
     12 C           2.7352    0.5868    0.2600 C.3     1  UNL1       -0.0059
     13 O           5.5561    9.4072    0.0285 O.co2   1  UNL1       -0.5497
     14 C           2.8393    6.9742    0.0669 C.3     1  UNL1        0.0626
     15 C           2.7682    5.4527    0.0586 C.3     1  UNL1       -0.0004
     16 C          -3.4567   -0.1243   -0.0513 C.ar    1  UNL1       -0.0513
     17 C          -2.8457    2.1928   -0.0205 C.ar    1  UNL1       -0.0513
     18 C           1.4339    3.4250    0.0835 C.3     1  UNL1       -0.0227
     19 C          -5.1684    1.5704   -0.0161 C.ar    1  UNL1        0.1234
     20 C          -4.1879    2.5533   -0.0078 C.ar    1  UNL1       -0.0259
     21 C          -4.8011    0.2306   -0.0405 C.ar    1  UNL1       -0.0259
     22 F          -6.4659    1.9146   -0.0003 F       1  UNL1       -0.2055
     23 C           1.3160    4.9232    0.0867 C.3     1  UNL1        0.0579
     24 O           2.2824    7.4637    1.2893 O.3     1  UNL1       -0.3913
     25 O           0.6047    5.3219    1.2643 O.3     1  UNL1       -0.3917
     26 C           2.4415   -2.1319   -1.2765 C.3     1  UNL1       -0.0321
     27 C           2.2522   -2.3797    1.2640 C.3     1  UNL1       -0.0321
     28 C           3.4825    1.2269   -0.9466 C.3     1  UNL1       -0.0573
     29 C           3.1956    1.0671    1.6598 C.3     1  UNL1       -0.0573
     30 C           3.1272   -3.6382    1.1763 C.3     1  UNL1       -0.0512
     31 C           3.3182   -3.3900   -1.3090 C.3     1  UNL1       -0.0512
     32 C           4.1136   -3.4940    0.0038 C.3     1  UNL1       -0.0529
     33 H          -1.2494   -1.7303   -0.1380 H       1  UNL1        0.0815
     34 H          -0.3662    3.0253    1.0868 H       1  UNL1        0.0315
     35 H          -0.4565    3.0848   -0.7002 H       1  UNL1        0.0315
     36 H           4.8544    7.0044    0.8049 H       1  UNL1        0.0350
     37 H           4.7284    6.9873   -0.9440 H       1  UNL1        0.0350
     38 H           0.8075   -2.9897   -0.1887 H       1  UNL1        0.0528
     39 H           3.1074   -0.4149    0.2050 H       1  UNL1        0.0358
     40 H           2.2876    7.3828   -0.7538 H       1  UNL1        0.0598
     41 H           3.2847    5.0812    0.9189 H       1  UNL1        0.0315
     42 H           3.2185    5.1130   -0.8506 H       1  UNL1        0.0315
     43 H          -3.1905   -1.1213   -0.0672 H       1  UNL1        0.0624
     44 H          -2.1207    2.9272   -0.0148 H       1  UNL1        0.0624
     45 H           1.9236    3.1191   -0.8174 H       1  UNL1        0.0293
     46 H           1.9956    3.1363    0.9472 H       1  UNL1        0.0293
     47 H          -4.4553    3.5499    0.0078 H       1  UNL1        0.0646
     48 H          -5.5274   -0.5025   -0.0506 H       1  UNL1        0.0646
     49 H           0.7733    5.3148   -0.7482 H       1  UNL1        0.0594
     50 H           2.7770    7.0979    2.0393 H       1  UNL1        0.2098
     51 H           1.0649    4.9860    2.0493 H       1  UNL1        0.2098
     52 H           3.0693   -1.2685   -1.2032 H       1  UNL1        0.0285
     53 H           1.8610   -2.0947   -2.1746 H       1  UNL1        0.0285
     54 H           1.5537   -2.4917    2.0668 H       1  UNL1        0.0285
     55 H           2.8815   -1.5320    1.4382 H       1  UNL1        0.0285
     56 H           3.2094    2.2582   -1.0288 H       1  UNL1        0.0236
     57 H           3.2129    0.7138   -1.8460 H       1  UNL1        0.0236
     58 H           4.5387    1.1486   -0.7942 H       1  UNL1        0.0236
     59 H           2.8688    2.0738    1.8168 H       1  UNL1        0.0236
     60 H           4.2632    1.0255    1.7178 H       1  UNL1        0.0236
     61 H           2.7726    0.4335    2.4112 H       1  UNL1        0.0236
     62 H           2.5059   -4.4946    1.0169 H       1  UNL1        0.0266
     63 H           3.6722   -3.7590    2.0892 H       1  UNL1        0.0266
     64 H           3.9972   -3.3305   -2.1338 H       1  UNL1        0.0266
     65 H           2.6977   -4.2547   -1.4199 H       1  UNL1        0.0266
     66 H           4.7030   -2.6110    0.1372 H       1  UNL1        0.0265
     67 H           4.7605   -4.3456   -0.0316 H       1  UNL1        0.0265
@<TRIPOS>UNITY_ATOM_ATTR
11 1
charge -1
@<TRIPOS>BOND
     1     2     3   ar
     2     3     1   ar
     3     4     5   ar
     4     5     1   ar
     5     6     2    1
     6     7     9    1
     7     8     4    1
     8     9    14    1
     9    10     1    1
    10    11     7   ar
    11    12     3    1
    12    13     7   ar
    13    14    15    1
    14    15    23    1
    15    16     8   ar
    16    17     8   ar
    17    18     6    1
    18    19    20   ar
    19    20    17   ar
    20    21    16   ar
    21    22    19    1
    22    18    23    1
    23    14    24    1
    24    23    25    1
    25    26    10    1
    26    27    10    1
    27    28    12    1
    28    29    12    1
    29    30    27    1
    30    31    26    1
    31    32    31    1
    32     2     4   ar
    33    30    32    1
    34    21    19   ar
    35     5    33    1
    36     6    34    1
    37     6    35    1
    38     9    36    1
    39     9    37    1
    40    10    38    1
    41    12    39    1
    42    14    40    1
    43    15    41    1
    44    15    42    1
    45    16    43    1
    46    17    44    1
    47    18    45    1
    48    18    46    1
    49    20    47    1
    50    21    48    1
    51    23    49    1
    52    24    50    1
    53    25    51    1
    54    26    52    1
    55    26    53    1
    56    27    54    1
    57    27    55    1
    58    28    56    1
    59    28    57    1
    60    28    58    1
    61    29    59    1
    62    29    60    1
    63    29    61    1
    64    30    62    1
    65    30    63    1
    66    31    64    1
    67    31    65    1
    68    32    66    1
    69    32    67    1
@<TRIPOS>MOLECULE
BDB50013212
 58 59 0 0 0
SMALL
GASTEIGER

@<TRIPOS>ATOM
      1 N           0.6824   -0.9484   -0.0360 N.ar    1  UNL1       -0.3466
      2 C           0.1054    1.1781    0.0544 C.ar    1  UNL1        0.0035
      3 C           1.1851    0.2815    0.0744 C.ar    1  UNL1        0.0292
      4 C          -1.0361    0.3967   -0.0365 C.ar    1  UNL1        0.0070
      5 C          -0.6450   -0.9374   -0.0905 C.ar    1  UNL1        0.0134
      6 C           0.0727    2.6723    0.1320 C.2     1  UNL1       -0.0538
      7 C           4.0166    8.9875   -0.0545 C.2     1  UNL1        0.0442
      8 C          -2.4646    0.8310   -0.0396 C.ar    1  UNL1       -0.0157
      9 C           3.9469    7.4893    0.0163 C.3     1  UNL1        0.0130
     10 C           1.1184    3.4467   -0.1026 C.2     1  UNL1       -0.0552
     11 C           1.4750   -2.1593   -0.0904 C.3     1  UNL1        0.0286
     12 O           2.8955    9.7105   -0.3085 O.co2   1  UNL1       -0.5497
     13 C           2.7158    0.5078    0.2395 C.3     1  UNL1       -0.0056
     14 O           5.1028    9.5614    0.0788 O.co2   1  UNL1       -0.5497
     15 C           2.4769    7.0226    0.0278 C.3     1  UNL1        0.0629
     16 C           2.4496    5.4895    0.0374 C.3     1  UNL1        0.0032
     17 C          -3.4605   -0.1319   -0.0549 C.ar    1  UNL1       -0.0513
     18 C          -2.8213    2.1807   -0.0083 C.ar    1  UNL1       -0.0513
     19 C          -5.1519    1.5808   -0.0085 C.ar    1  UNL1        0.1234
     20 C           1.0086    4.9276   -0.0586 C.3     1  UNL1        0.0760
     21 C          -4.1587    2.5526    0.0066 C.ar    1  UNL1       -0.0259
     22 C          -4.8027    0.2370   -0.0404 C.ar    1  UNL1       -0.0259
     23 F          -6.4453    1.9398    0.0076 F       1  UNL1       -0.2055
     24 O           1.8155    7.5195    1.1944 O.3     1  UNL1       -0.3913
     25 O           0.1842    5.2991    1.0541 O.3     1  UNL1       -0.3877
     26 C           0.5561   -3.3794    0.0939 C.3     1  UNL1       -0.0445
     27 C           2.1888   -2.2788   -1.4578 C.3     1  UNL1       -0.0445
     28 C           3.4272    1.5945   -0.5924 C.3     1  UNL1       -0.0573
     29 C           3.1882    0.4385    1.7050 C.3     1  UNL1       -0.0573
     30 H          -1.2656   -1.7590   -0.1595 H       1  UNL1        0.0815
     31 H          -0.8197    3.1255    0.3837 H       1  UNL1        0.0622
     32 H           4.4305    7.1552    0.9104 H       1  UNL1        0.0350
     33 H           4.4367    7.0768   -0.8410 H       1  UNL1        0.0350
     34 H           2.0294    3.0136   -0.3207 H       1  UNL1        0.0598
     35 H           2.2076   -2.1227    0.6886 H       1  UNL1        0.0522
     36 H           3.0792   -0.3575   -0.2744 H       1  UNL1        0.0358
     37 H           1.9733    7.3951   -0.8397 H       1  UNL1        0.0598
     38 H           2.8945    5.1429    0.9467 H       1  UNL1        0.0318
     39 H           2.9929    5.1465   -0.8182 H       1  UNL1        0.0318
     40 H          -3.2051   -1.1315   -0.0772 H       1  UNL1        0.0624
     41 H          -2.0868    2.9056    0.0038 H       1  UNL1        0.0624
     42 H           0.5447    5.3335   -0.9332 H       1  UNL1        0.0638
     43 H          -4.4156    3.5519    0.0289 H       1  UNL1        0.0646
     44 H          -5.5376   -0.4874   -0.0533 H       1  UNL1        0.0646
     45 H           2.2649    7.1871    1.9871 H       1  UNL1        0.2098
     46 H           0.5696    4.9499    1.8729 H       1  UNL1        0.2102
     47 H          -0.1696   -3.4013   -0.6921 H       1  UNL1        0.0249
     48 H           0.0573   -3.3109    1.0381 H       1  UNL1        0.0249
     49 H           1.1415   -4.2746    0.0639 H       1  UNL1        0.0249
     50 H           1.4588   -2.3157   -2.2392 H       1  UNL1        0.0249
     51 H           2.7766   -3.1727   -1.4764 H       1  UNL1        0.0249
     52 H           2.8247   -1.4307   -1.6035 H       1  UNL1        0.0249
     53 H           3.1724    2.5606   -0.2096 H       1  UNL1        0.0236
     54 H           3.1165    1.5223   -1.6137 H       1  UNL1        0.0236
     55 H           4.4862    1.4545   -0.5310 H       1  UNL1        0.0236
     56 H           2.8333    1.2975    2.2351 H       1  UNL1        0.0236
     57 H           4.2576    0.4179    1.7344 H       1  UNL1        0.0236
     58 H           2.8017   -0.4480    2.1628 H       1  UNL1        0.0236
@<TRIPOS>UNITY_ATOM_ATTR
12 1
charge -1
@<TRIPOS>BOND
     1     2     3   ar
     2     3     1   ar
     3     4     5   ar
     4     5     1   ar
     5     6     2    1
     6     7     9    1
     7     8     4    1
     8     9    15    1
     9    10     6    2
    10    11     1    1
    11    12     7   ar
    12    13     3    1
    13    14     7   ar
    14    15    16    1
    15    16    20    1
    16    17     8   ar
    17    18     8   ar
    18    19    21   ar
    19    10    20    1
    20    21    18   ar
    21    22    17   ar
    22    23    19    1
    23    15    24    1
    24    20    25    1
    25    26    11    1
    26    27    11    1
    27    28    13    1
    28    29    13    1
    29     2     4   ar
    30    22    19   ar
    31     5    30    1
    32     6    31    1
    33     9    32    1
    34     9    33    1
    35    10    34    1
    36    11    35    1
    37    13    36    1
    38    15    37    1
    39    16    38    1
    40    16    39    1
    41    17    40    1
    42    18    41    1
    43    20    42    1
    44    21    43    1
    45    22    44    1
    46    24    45    1
    47    25    46    1
    48    26    47    1
    49    26    48    1
    50    26    49    1
    51    27    50    1
    52    27    51    1
    53    27    52    1
    54    28    53    1
    55    28    54    1
    56    28    55    1
    57    29    56    1
    58    29    57    1
    59    29    58    1
@<TRIPOS>MOLECULE
BDB50013219
 65 67 0 0 0
SMALL
GASTEIGER

@<TRIPOS>ATOM
      1 N           0.7049   -0.9322    0.0200 N.ar    1  UNL1       -0.3461
      2 C           0.0938    1.1888    0.0636 C.ar    1  UNL1        0.0035
      3 C           1.1860    0.3143    0.0971 C.ar    1  UNL1        0.0293
      4 C          -1.0387    0.3893   -0.0051 C.ar    1  UNL1        0.0070
      5 C          -0.6256   -0.9364   -0.0308 C.ar    1  UNL1        0.0134
      6 C           0.0593    2.6788    0.0985 C.2     1  UNL1       -0.0538
      7 C           4.0165    8.9893   -0.0599 C.2     1  UNL1        0.0442
      8 C          -2.4689    0.8224   -0.0188 C.ar    1  UNL1       -0.0157
      9 C           3.9490    7.4915    0.0197 C.3     1  UNL1        0.0130
     10 C           1.1352    3.4398   -0.0178 C.2     1  UNL1       -0.0552
     11 C           1.4984   -2.1567   -0.0552 C.3     1  UNL1        0.0343
     12 O           2.8943    9.7102   -0.3144 O.co2   1  UNL1       -0.5497
     13 C           2.7033    0.6455    0.2296 C.3     1  UNL1       -0.0056
     14 O           5.1017    9.5651    0.0730 O.co2   1  UNL1       -0.5497
     15 C           2.4807    7.0200    0.0338 C.3     1  UNL1        0.0629
     16 C           2.4605    5.4875    0.0660 C.3     1  UNL1        0.0032
     17 C          -3.4684   -0.1430   -0.0311 C.ar    1  UNL1       -0.0513
     18 C          -2.8247    2.1683   -0.0024 C.ar    1  UNL1       -0.0513
     19 C          -5.1558    1.5760   -0.0101 C.ar    1  UNL1        0.1234
     20 C           1.0229    4.9177   -0.0237 C.3     1  UNL1        0.0760
     21 C          -4.1617    2.5459    0.0019 C.ar    1  UNL1       -0.0259
     22 C          -4.8081    0.2308   -0.0279 C.ar    1  UNL1       -0.0259
     23 F          -6.4482    1.9385   -0.0044 F       1  UNL1       -0.2055
     24 O           1.8165    7.5270    1.1948 O.3     1  UNL1       -0.3913
     25 O           0.1902    5.3172    1.0724 O.3     1  UNL1       -0.3877
     26 C           2.4718   -2.0986   -1.2633 C.3     1  UNL1       -0.0321
     27 C           2.2678   -2.3814    1.2677 C.3     1  UNL1       -0.0321
     28 C           3.3381    1.4995   -0.8954 C.3     1  UNL1       -0.0573
     29 C           3.1194    1.0812    1.6512 C.3     1  UNL1       -0.0573
     30 C           3.1392   -3.6427    1.1698 C.3     1  UNL1       -0.0512
     31 C           3.3459   -3.3592   -1.3122 C.3     1  UNL1       -0.0512
     32 C           4.1323   -3.4887    0.0040 C.3     1  UNL1       -0.0529
     33 H          -1.2349   -1.7679   -0.0800 H       1  UNL1        0.0815
     34 H          -0.8547    3.1424    0.2201 H       1  UNL1        0.0622
     35 H           4.4332    7.1638    0.9158 H       1  UNL1        0.0350
     36 H           4.4390    7.0758   -0.8359 H       1  UNL1        0.0350
     37 H           2.0642    2.9990   -0.1055 H       1  UNL1        0.0598
     38 H           0.8382   -2.9860   -0.2012 H       1  UNL1        0.0528
     39 H           3.1554   -0.3097    0.0617 H       1  UNL1        0.0358
     40 H           1.9776    7.3800   -0.8392 H       1  UNL1        0.0598
     41 H           2.9056    5.1564    0.9810 H       1  UNL1        0.0318
     42 H           3.0067    5.1345   -0.7837 H       1  UNL1        0.0318
     43 H          -3.2151   -1.1434   -0.0427 H       1  UNL1        0.0624
     44 H          -2.0888    2.8918    0.0066 H       1  UNL1        0.0624
     45 H           0.5670    5.2956   -0.9149 H       1  UNL1        0.0638
     46 H          -4.4159    3.5460    0.0140 H       1  UNL1        0.0646
     47 H          -5.5448   -0.4918   -0.0388 H       1  UNL1        0.0646
     48 H           2.2668    7.2051    1.9914 H       1  UNL1        0.2098
     49 H           0.5712    4.9922    1.9031 H       1  UNL1        0.2102
     50 H           3.1004   -1.2380   -1.1676 H       1  UNL1        0.0285
     51 H           1.8996   -2.0398   -2.1655 H       1  UNL1        0.0285
     52 H           1.5673   -2.4976    2.0681 H       1  UNL1        0.0285
     53 H           2.8979   -1.5364    1.4518 H       1  UNL1        0.0285
     54 H           2.9622    2.4997   -0.8392 H       1  UNL1        0.0236
     55 H           3.0892    1.0779   -1.8468 H       1  UNL1        0.0236
     56 H           4.4015    1.5110   -0.7775 H       1  UNL1        0.0236
     57 H           2.6911    2.0368    1.8711 H       1  UNL1        0.0236
     58 H           4.1859    1.1472    1.7062 H       1  UNL1        0.0236
     59 H           2.7695    0.3616    2.3615 H       1  UNL1        0.0236
     60 H           2.5156   -4.4949    0.9973 H       1  UNL1        0.0266
     61 H           3.6790   -3.7760    2.0840 H       1  UNL1        0.0266
     62 H           4.0306   -3.2870   -2.1313 H       1  UNL1        0.0266
     63 H           2.7239   -4.2200   -1.4425 H       1  UNL1        0.0266
     64 H           4.7276   -2.6123    0.1536 H       1  UNL1        0.0265
     65 H           4.7721   -4.3452   -0.0406 H       1  UNL1        0.0265
@<TRIPOS>UNITY_ATOM_ATTR
12 1
charge -1
@<TRIPOS>BOND
     1     2     3   ar
     2     3     1   ar
     3     4     5   ar
     4     5     1   ar
     5     6     2    1
     6     7     9    1
     7     8     4    1
     8     9    15    1
     9    10     6    2
    10    11     1    1
    11    12     7   ar
    12    13     3    1
    13    14     7   ar
    14    15    16    1
    15    16    20    1
    16    17     8   ar
    17    18     8   ar
    18    19    21   ar
    19    10    20    1
    20    21    18   ar
    21    22    17   ar
    22    23    19    1
    23    15    24    1
    24    20    25    1
    25    26    11    1
    26    27    11    1
    27    28    13    1
    28    29    13    1
    29    30    27    1
    30    31    26    1
    31    32    31    1
    32     2     4   ar
    33    30    32    1
    34    22    19   ar
    35     5    33    1
    36     6    34    1
    37     9    35    1
    38     9    36    1
    39    10    37    1
    40    11    38    1
    41    13    39    1
    42    15    40    1
    43    16    41    1
    44    16    42    1
    45    17    43    1
    46    18    44    1
    47    20    45    1
    48    21    46    1
    49    22    47    1
    50    24    48    1
    51    25    49    1
    52    26    50    1
    53    26    51    1
    54    27    52    1
    55    27    53    1
    56    28    54    1
    57    28    55    1
    58    28    56    1
    59    29    57    1
    60    29    58    1
    61    29    59    1
    62    30    60    1
    63    30    61    1
    64    31    62    1
    65    31    63    1
    66    32    64    1
    67    32    65    1
@<TRIPOS>MOLECULE
BDB50215692
 79 82 0 0 0
SMALL
GASTEIGER

@<TRIPOS>ATOM
      1 C           0.7250   -1.0635    0.0122 C.ar    1  UNL1        0.0201
      2 C          -0.6870   -1.0977   -0.0371 C.ar    1  UNL1        0.0113
      3 C          -1.0975    0.2706   -0.0338 C.ar    1  UNL1        0.0280
      4 N          -0.0099    1.0329    0.0597 N.ar    1  UNL1       -0.3367
      5 C           1.1058    0.3106    0.0512 C.ar    1  UNL1        0.1132
      6 C          -0.0516    2.4900    0.2897 C.3     1  UNL1        0.0293
      7 C          -0.3504    3.4016   -0.9307 C.3     1  UNL1       -0.0445
      8 C          -0.6254    2.9773    1.6491 C.3     1  UNL1       -0.0445
      9 C          -1.6789   -2.4449   -0.1003 C.ar    1  UNL1       -0.0154
     10 C          -3.0425   -2.3989   -0.3238 C.ar    1  UNL1       -0.0512
     11 C          -3.8878   -3.5064   -0.2790 C.ar    1  UNL1       -0.0259
     12 C          -3.3578   -4.7626   -0.0510 C.ar    1  UNL1        0.1234
     13 C          -1.9912   -4.8731    0.1314 C.ar    1  UNL1       -0.0259
     14 C          -1.1988   -3.7337    0.1251 C.ar    1  UNL1       -0.0512
     15 C           1.7963   -2.2852   -0.0060 C.ar    1  UNL1       -0.0151
     16 C           3.1573   -2.0797    0.0272 C.ar    1  UNL1       -0.0539
     17 C           4.0989   -3.1070    0.0215 C.ar    1  UNL1       -0.0612
     18 C           3.6813   -4.4252   -0.0072 C.ar    1  UNL1       -0.0617
     19 C           2.3206   -4.6795   -0.0408 C.ar    1  UNL1       -0.0612
     20 C           1.4194   -3.6280   -0.0474 C.ar    1  UNL1       -0.0539
     21 C          -2.5280    0.9850   -0.1275 C.3     1  UNL1       -0.0093
     22 C          -3.7071    0.1777    0.3132 C.3     1  UNL1       -0.0214
     23 C          -5.1042    0.7274    0.0361 C.3     1  UNL1        0.0579
     24 C          -6.0234   -0.5114    0.1940 C.3     1  UNL1       -0.0004
     25 O          -5.2144    1.2396   -1.3032 O.3     1  UNL1       -0.3917
     26 C          -7.4955   -0.1761    0.0303 C.3     1  UNL1        0.0626
     27 C          -8.3208   -1.4708    0.1161 C.3     1  UNL1        0.0130
     28 O          -7.7275    0.4444   -1.2354 O.3     1  UNL1       -0.3913
     29 C          -9.7671   -1.1076    0.0207 C.2     1  UNL1        0.0442
     30 O         -10.1275    0.2001   -0.0091 O.co2   1  UNL1       -0.5497
     31 O         -10.6325   -1.9898    0.0012 O.co2   1  UNL1       -0.5497
     32 C           2.5754    0.9391    0.0692 C.2     1  UNL1        0.2614
     33 O           3.5870    0.2604    0.0039 O.2     1  UNL1       -0.2686
     34 N           2.8589    2.3079    0.1056 N.am    1  UNL1       -0.3060
     35 C           4.2359    2.7382    0.0389 C.3     1  UNL1        0.0372
     36 F          -4.1459   -5.8492   -0.0237 F       1  UNL1       -0.2055
     37 C           4.3330    4.2482    0.0176 C.ar    1  UNL1       -0.0302
     38 C           3.1829    5.0270    0.0173 C.ar    1  UNL1       -0.0559
     39 C           3.2749    6.4165    0.0070 C.ar    1  UNL1       -0.0440
     40 C           4.5059    7.0233   -0.0010 C.ar    1  UNL1        0.0518
     41 C           5.6755    6.2452   -0.0046 C.ar    1  UNL1       -0.0440
     42 C           5.5797    4.8646    0.0052 C.ar    1  UNL1       -0.0559
     43 C           4.5855    8.4381   -0.0081 C.1     1  UNL1        0.0992
     44 N           4.6470    9.5870   -0.0087 N.1     1  UNL1       -0.1909
     45 H           0.9965    2.6600    0.4218 H       1  UNL1        0.0522
     46 H          -1.3880    3.3316   -1.1826 H       1  UNL1        0.0249
     47 H           0.2411    3.0863   -1.7647 H       1  UNL1        0.0249
     48 H          -0.1103    4.4152   -0.6860 H       1  UNL1        0.0249
     49 H          -1.6889    2.8595    1.6501 H       1  UNL1        0.0249
     50 H          -0.3807    4.0094    1.7901 H       1  UNL1        0.0249
     51 H          -0.2017    2.3986    2.4431 H       1  UNL1        0.0249
     52 H          -3.4635   -1.4815   -0.5386 H       1  UNL1        0.0624
     53 H          -4.9040   -3.3891   -0.4153 H       1  UNL1        0.0646
     54 H          -1.5616   -5.8009    0.2719 H       1  UNL1        0.0646
     55 H          -0.1880   -3.8483    0.2987 H       1  UNL1        0.0624
     56 H           3.5006   -1.1070    0.0581 H       1  UNL1        0.0624
     57 H           5.1065   -2.8845    0.0387 H       1  UNL1        0.0618
     58 H           4.3651   -5.1981   -0.0037 H       1  UNL1        0.0618
     59 H           1.9780   -5.6528   -0.0609 H       1  UNL1        0.0618
     60 H           0.4123   -3.8501   -0.0851 H       1  UNL1        0.0624
     61 H          -2.6869    1.2617   -1.1488 H       1  UNL1        0.0329
     62 H          -2.4783    1.8088    0.5536 H       1  UNL1        0.0329
     63 H          -3.6228    0.0453    1.3716 H       1  UNL1        0.0294
     64 H          -3.6522   -0.7138   -0.2760 H       1  UNL1        0.0294
     65 H          -5.3521    1.5374    0.6898 H       1  UNL1        0.0594
     66 H          -5.8736   -0.9263    1.1688 H       1  UNL1        0.0315
     67 H          -5.7634   -1.2061   -0.5772 H       1  UNL1        0.0315
     68 H          -4.9978    0.5377   -1.9367 H       1  UNL1        0.2098
     69 H          -7.7862    0.4997    0.8073 H       1  UNL1        0.0598
     70 H          -8.1308   -1.9607    1.0482 H       1  UNL1        0.0350
     71 H          -8.0524   -2.1345   -0.6791 H       1  UNL1        0.0350
     72 H          -7.4663   -0.1624   -1.9457 H       1  UNL1        0.2098
     73 H           2.1315    2.9677    0.1756 H       1  UNL1        0.1494
     74 H           4.6819    2.3465   -0.8513 H       1  UNL1        0.0512
     75 H           4.7480    2.3764    0.9059 H       1  UNL1        0.0512
     76 H           2.2558    4.5738    0.0247 H       1  UNL1        0.0621
     77 H           2.4171    6.9902    0.0054 H       1  UNL1        0.0630
     78 H           6.6015    6.7008   -0.0145 H       1  UNL1        0.0630
     79 H           6.4370    4.2900    0.0033 H       1  UNL1        0.0621
@<TRIPOS>UNITY_ATOM_ATTR
30 1
charge -1
@<TRIPOS>BOND
     1     3    21    1
     2     4     5   ar
     3    21    22    1
     4    10    11   ar
     5    22    23    1
     6     5     1   ar
     7    23    24    1
     8    11    12   ar
     9    23    25    1
    10     1     2   ar
    11    24    26    1
    12    12    13   ar
    13    26    27    1
    14     4     6    1
    15    26    28    1
    16    13    14   ar
    17    27    29    1
    18    14     9   ar
    19    29    30   ar
    20     2     9    1
    21    29    31   ar
    22     5    32    1
    23     6     7    1
    24    32    33    2
    25    15    16   ar
    26    32    34   am
    27    34    35    1
    28    16    17   ar
    29    12    36    1
    30     6     8    1
    31    35    37    1
    32    17    18   ar
    33    37    38   ar
    34     2     3   ar
    35    38    39   ar
    36    18    19   ar
    37    39    40   ar
    38     3     4   ar
    39    40    41   ar
    40    19    20   ar
    41    41    42   ar
    42    42    37   ar
    43    20    15   ar
    44     1    15    1
    45    43    44    3
    46    40    43    1
    47     9    10   ar
    48     6    45    1
    49     7    46    1
    50     7    47    1
    51     7    48    1
    52     8    49    1
    53     8    50    1
    54     8    51    1
    55    10    52    1
    56    11    53    1
    57    13    54    1
    58    14    55    1
    59    16    56    1
    60    17    57    1
    61    18    58    1
    62    19    59    1
    63    20    60    1
    64    21    61    1
    65    21    62    1
    66    22    63    1
    67    22    64    1
    68    23    65    1
    69    24    66    1
    70    24    67    1
    71    25    68    1
    72    26    69    1
    73    27    70    1
    74    27    71    1
    75    28    72    1
    76    34    73    1
    77    35    74    1
    78    35    75    1
    79    38    76    1
    80    39    77    1
    81    41    78    1
    82    42    79    1
@<TRIPOS>MOLECULE
BDB50013221
 54 55 0 0 0
SMALL
GASTEIGER

@<TRIPOS>ATOM
      1 N           0.6720   -0.9228   -0.0002 N.ar    1  UNL1       -0.3474
      2 C           0.0107    1.1738    0.0000 C.ar    1  UNL1       -0.0191
      3 C          -1.1024    0.3536   -0.0001 C.ar    1  UNL1        0.0030
      4 C           1.1090    0.3333   -0.0001 C.ar    1  UNL1        0.0197
      5 C          -0.6622   -0.9669   -0.0002 C.ar    1  UNL1        0.0131
      6 C           0.0246    2.6738   -0.0001 C.3     1  UNL1       -0.0231
      7 C           4.3884    8.8474    0.0004 C.2     1  UNL1        0.0442
      8 C          -2.4980    0.7958   -0.0001 C.ar    1  UNL1       -0.0160
      9 C           4.3616    7.3421    0.0101 C.3     1  UNL1        0.0130
     10 C           1.5246   -2.0833   -0.0006 C.3     1  UNL1        0.0286
     11 O           3.2269    9.5522   -0.0078 O.co2   1  UNL1       -0.5497
     12 O           5.4711    9.4446   -0.0006 O.co2   1  UNL1       -0.5497
     13 C           2.9042    6.8355    0.0216 C.3     1  UNL1        0.0626
     14 C           2.9025    5.2861    0.0317 C.3     1  UNL1       -0.0004
     15 C          -3.5231   -0.1430   -0.0002 C.ar    1  UNL1       -0.0513
     16 C          -2.7976    2.1531    0.0001 C.ar    1  UNL1       -0.0513
     17 C           2.5418    0.7636    0.0000 C.3     1  UNL1       -0.0240
     18 C           1.4759    3.1996    0.0050 C.3     1  UNL1       -0.0227
     19 C          -5.1474    1.6331    0.0000 C.ar    1  UNL1        0.1234
     20 C          -4.1225    2.5718    0.0001 C.ar    1  UNL1       -0.0259
     21 C          -4.8483    0.2758   -0.0001 C.ar    1  UNL1       -0.0259
     22 F          -6.4236    2.0374    0.0001 F       1  UNL1       -0.2055
     23 C           1.4540    4.7421    0.0227 C.3     1  UNL1        0.0579
     24 O           2.2423    7.3316    1.1881 O.3     1  UNL1       -0.3913
     25 O           0.7592    5.1835    1.1907 O.3     1  UNL1       -0.3917
     26 C           0.6876   -3.3805   -0.0214 C.3     1  UNL1       -0.0445
     27 C           2.4547   -2.0463   -1.2286 C.3     1  UNL1       -0.0445
     28 H          -1.2517   -1.8140   -0.0003 H       1  UNL1        0.0815
     29 H          -0.4826    3.0309    0.8717 H       1  UNL1        0.0315
     30 H          -0.4682    3.0249   -0.8826 H       1  UNL1        0.0315
     31 H           4.8668    6.9852    0.8832 H       1  UNL1        0.0350
     32 H           4.8509    6.9784   -0.8692 H       1  UNL1        0.0350
     33 H           2.1108   -2.0719    0.8945 H       1  UNL1        0.0522
     34 H           2.3901    7.1829   -0.8501 H       1  UNL1        0.0598
     35 H           3.4026    4.9398    0.9120 H       1  UNL1        0.0315
     36 H           3.4078    4.9353   -0.8438 H       1  UNL1        0.0315
     37 H          -3.3002   -1.1506   -0.0003 H       1  UNL1        0.0624
     38 H          -2.0362    2.8497    0.0002 H       1  UNL1        0.0624
     39 H           2.5932    1.8324    0.0001 H       1  UNL1        0.0292
     40 H           3.0285    0.3832   -0.8736 H       1  UNL1        0.0292
     41 H           3.0284    0.3830    0.8737 H       1  UNL1        0.0292
     42 H           1.9836    2.8585   -0.8729 H       1  UNL1        0.0293
     43 H           1.9878    2.8364    0.8716 H       1  UNL1        0.0293
     44 H          -4.3454    3.5794    0.0002 H       1  UNL1        0.0646
     45 H          -5.6098   -0.4207   -0.0001 H       1  UNL1        0.0646
     46 H           0.9548    5.1071   -0.8505 H       1  UNL1        0.0594
     47 H           2.7058    7.0185    1.9806 H       1  UNL1        0.2098
     48 H           1.2128    4.8519    1.9814 H       1  UNL1        0.2098
     49 H           0.0944   -3.4080   -0.9115 H       1  UNL1        0.0249
     50 H           0.0468   -3.4053    0.8352 H       1  UNL1        0.0249
     51 H           1.3415   -4.2272   -0.0023 H       1  UNL1        0.0249
     52 H           1.8663   -2.0578   -2.1222 H       1  UNL1        0.0249
     53 H           3.0983   -2.9010   -1.2144 H       1  UNL1        0.0249
     54 H           3.0454   -1.1545   -1.2019 H       1  UNL1        0.0249
@<TRIPOS>UNITY_ATOM_ATTR
11 1
charge -1
@<TRIPOS>BOND
     1     2     4   ar
     2     3     5   ar
     3     4     1   ar
     4     5     1   ar
     5     6     2    1
     6     7     9    1
     7     8     3    1
     8     9    13    1
     9    10     1    1
    10    11     7   ar
    11    12     7   ar
    12    13    14    1
    13    14    23    1
    14    15     8   ar
    15    16     8   ar
    16    17     4    1
    17    18     6    1
    18    19    20   ar
    19    20    16   ar
    20    21    15   ar
    21    22    19    1
    22    18    23    1
    23    13    24    1
    24    23    25    1
    25    26    10    1
    26    27    10    1
    27     2     3   ar
    28    21    19   ar
    29     5    28    1
    30     6    29    1
    31     6    30    1
    32     9    31    1
    33     9    32    1
    34    10    33    1
    35    13    34    1
    36    14    35    1
    37    14    36    1
    38    15    37    1
    39    16    38    1
    40    17    39    1
    41    17    40    1
    42    17    41    1
    43    18    42    1
    44    18    43    1
    45    20    44    1
    46    21    45    1
    47    23    46    1
    48    24    47    1
    49    25    48    1
    50    26    49    1
    51    26    50    1
    52    26    51    1
    53    27    52    1
    54    27    53    1
    55    27    54    1
@<TRIPOS>MOLECULE
BDB50215693
 77 80 0 0 0
SMALL
GASTEIGER

@<TRIPOS>ATOM
      1 C           0.7117   -1.0628    0.0100 C.ar    1  UNL1        0.0201
      2 C          -0.6954   -1.0931   -0.0459 C.ar    1  UNL1        0.0113
      3 C          -1.1087    0.2755   -0.0443 C.ar    1  UNL1        0.0280
      4 N          -0.0215    1.0360    0.0574 N.ar    1  UNL1       -0.3366
      5 C           1.0942    0.3161    0.0522 C.ar    1  UNL1        0.1135
      6 C          -0.0660    2.4897    0.3048 C.3     1  UNL1        0.0293
      7 C          -0.3918    3.4092   -0.9043 C.3     1  UNL1       -0.0445
      8 C          -0.6476    2.9524    1.6690 C.3     1  UNL1       -0.0445
      9 C          -1.6935   -2.4287   -0.1141 C.ar    1  UNL1       -0.0154
     10 C          -3.0476   -2.3784   -0.3775 C.ar    1  UNL1       -0.0512
     11 C          -3.8987   -3.4836   -0.3298 C.ar    1  UNL1       -0.0259
     12 C          -3.3802   -4.7370   -0.0605 C.ar    1  UNL1        0.1234
     13 C          -2.0195   -4.8500    0.1614 C.ar    1  UNL1       -0.0259
     14 C          -1.2226   -3.7154    0.1548 C.ar    1  UNL1       -0.0512
     15 C           1.7848   -2.2957   -0.0089 C.ar    1  UNL1       -0.0151
     16 C           3.1456   -2.1063    0.0283 C.ar    1  UNL1       -0.0539
     17 C           4.0797   -3.1424    0.0237 C.ar    1  UNL1       -0.0612
     18 C           3.6505   -4.4564   -0.0082 C.ar    1  UNL1       -0.0617
     19 C           2.2871   -4.6970   -0.0481 C.ar    1  UNL1       -0.0612
     20 C           1.3953   -3.6385   -0.0568 C.ar    1  UNL1       -0.0539
     21 C          -2.5376    0.9808   -0.1465 C.3     1  UNL1       -0.0093
     22 C          -3.7108    0.1903    0.3436 C.3     1  UNL1       -0.0214
     23 C          -5.1049    0.7444    0.0453 C.3     1  UNL1        0.0579
     24 C          -6.0301   -0.4855    0.2193 C.3     1  UNL1       -0.0004
     25 O          -5.2042    1.2324   -1.3055 O.3     1  UNL1       -0.3917
     26 C          -7.5011   -0.1541    0.0373 C.3     1  UNL1        0.0626
     27 C          -8.3187   -1.4529    0.1347 C.3     1  UNL1        0.0130
     28 O          -7.7255    0.4480   -1.2395 O.3     1  UNL1       -0.3913
     29 C          -9.7666   -1.1050    0.0235 C.2     1  UNL1        0.0442
     30 O         -10.1399    0.1984   -0.0171 O.co2   1  UNL1       -0.5497
     31 O         -10.6223   -1.9965    0.0014 O.co2   1  UNL1       -0.5497
     32 C           2.5627    0.9429    0.0772 C.2     1  UNL1        0.2654
     33 O           3.5490    0.2330    0.0434 O.2     1  UNL1       -0.2682
     34 N           2.8459    2.3568    0.0866 N.am    1  UNL1       -0.2803
     35 C           4.1562    2.8800    0.0549 C.ar    1  UNL1        0.0338
     36 C           5.2983    2.0859    0.0248 C.ar    1  UNL1       -0.0399
     37 C           6.5583    2.6720   -0.0008 C.ar    1  UNL1       -0.0511
     38 C           6.6753    4.0563    0.0011 C.ar    1  UNL1       -0.0026
     39 C           5.5387    4.8519    0.0254 C.ar    1  UNL1       -0.0511
     40 C           4.2838    4.2630    0.0531 C.ar    1  UNL1       -0.0399
     41 F          -4.1726   -5.8206   -0.0315 F       1  UNL1       -0.2055
     42 C           7.9842    4.6855   -0.0159 C.2     1  UNL1        0.0717
     43 O           8.0774    6.0398   -0.0115 O.co2   1  UNL1       -0.5446
     44 O           9.0062    3.9917   -0.0248 O.co2   1  UNL1       -0.5446
     45 H           0.9808    2.6705    0.4330 H       1  UNL1        0.0522
     46 H          -1.4307    3.3255   -1.1463 H       1  UNL1        0.0249
     47 H           0.1959    3.1114   -1.7474 H       1  UNL1        0.0249
     48 H          -0.1650    4.4240   -0.6520 H       1  UNL1        0.0249
     49 H          -1.7093    2.8195    1.6676 H       1  UNL1        0.0249
     50 H          -0.4178    3.9861    1.8226 H       1  UNL1        0.0249
     51 H          -0.2163    2.3703    2.4565 H       1  UNL1        0.0249
     52 H          -3.4572   -1.4643   -0.6258 H       1  UNL1        0.0624
     53 H          -4.9106   -3.3659   -0.4948 H       1  UNL1        0.0646
     54 H          -1.5984   -5.7767    0.3315 H       1  UNL1        0.0646
     55 H          -0.2180   -3.8291    0.3617 H       1  UNL1        0.0624
     56 H           3.4984   -1.1370    0.0617 H       1  UNL1        0.0624
     57 H           5.0891   -2.9286    0.0441 H       1  UNL1        0.0618
     58 H           4.3269   -5.2358   -0.0024 H       1  UNL1        0.0618
     59 H           1.9356   -5.6670   -0.0714 H       1  UNL1        0.0618
     60 H           0.3866   -3.8518   -0.1011 H       1  UNL1        0.0624
     61 H          -2.7112    1.2154   -1.1759 H       1  UNL1        0.0329
     62 H          -2.4798    1.8313    0.5003 H       1  UNL1        0.0329
     63 H          -3.6195    0.1052    1.4063 H       1  UNL1        0.0294
     64 H          -3.6623   -0.7341   -0.1932 H       1  UNL1        0.0294
     65 H          -5.3520    1.5685    0.6814 H       1  UNL1        0.0594
     66 H          -5.8893   -0.8812    1.2034 H       1  UNL1        0.0315
     67 H          -5.7661   -1.1934   -0.5384 H       1  UNL1        0.0315
     68 H          -4.9880    0.5174   -1.9243 H       1  UNL1        0.2098
     69 H          -7.8014    0.5344    0.7993 H       1  UNL1        0.0598
     70 H          -8.1320   -1.9283    1.0749 H       1  UNL1        0.0350
     71 H          -8.0395   -2.1240   -0.6505 H       1  UNL1        0.0350
     72 H          -7.4565   -0.1677   -1.9391 H       1  UNL1        0.2098
     73 H           2.0898    2.9866    0.1165 H       1  UNL1        0.1552
     74 H           5.2095    1.0577    0.0215 H       1  UNL1        0.0636
     75 H           7.4040    2.0809   -0.0211 H       1  UNL1        0.0625
     76 H           5.6273    5.8801    0.0229 H       1  UNL1        0.0625
     77 H           3.4394    4.8559    0.0725 H       1  UNL1        0.0636
@<TRIPOS>UNITY_ATOM_ATTR
30 1
charge -1
43 1
charge -1
@<TRIPOS>BOND
     1     3    21    1
     2     4     5   ar
     3    21    22    1
     4    10    11   ar
     5    22    23    1
     6     5     1   ar
     7    23    24    1
     8    11    12   ar
     9    23    25    1
    10     1     2   ar
    11    24    26    1
    12    12    13   ar
    13    26    27    1
    14     4     6    1
    15    26    28    1
    16    13    14   ar
    17    27    29    1
    18    14     9   ar
    19    29    30   ar
    20     2     9    1
    21    29    31   ar
    22     5    32    1
    23     6     7    1
    24    32    33    2
    25    15    16   ar
    26    32    34   am
    27    34    35    1
    28    16    17   ar
    29    35    36   ar
    30     6     8    1
    31    36    37   ar
    32    17    18   ar
    33    37    38   ar
    34     2     3   ar
    35    38    39   ar
    36    18    19   ar
    37    39    40   ar
    38    40    35   ar
    39     3     4   ar
    40    12    41    1
    41    19    20   ar
    42    20    15   ar
    43     1    15    1
    44    42    43   ar
    45    42    44   ar
    46    38    42    1
    47     9    10   ar
    48     6    45    1
    49     7    46    1
    50     7    47    1
    51     7    48    1
    52     8    49    1
    53     8    50    1
    54     8    51    1
    55    10    52    1
    56    11    53    1
    57    13    54    1
    58    14    55    1
    59    16    56    1
    60    17    57    1
    61    18    58    1
    62    19    59    1
    63    20    60    1
    64    21    61    1
    65    21    62    1
    66    22    63    1
    67    22    64    1
    68    23    65    1
    69    24    66    1
    70    24    67    1
    71    25    68    1
    72    26    69    1
    73    27    70    1
    74    27    71    1
    75    28    72    1
    76    34    73    1
    77    36    74    1
    78    37    75    1
    79    39    76    1
    80    40    77    1
@<TRIPOS>MOLECULE
BDB50215688
 85 88 0 0 0
SMALL
GASTEIGER

@<TRIPOS>ATOM
      1 C           0.7231   -1.1192   -0.0580 C.ar    1  UNL1        0.0201
      2 C          -0.7066   -1.1200   -0.0354 C.ar    1  UNL1        0.0113
      3 C          -1.0839    0.2572   -0.0032 C.ar    1  UNL1        0.0280
      4 N           0.0258    1.0049   -0.0068 N.ar    1  UNL1       -0.3366
      5 C           1.1129    0.2432   -0.0527 C.ar    1  UNL1        0.1135
      6 C           0.1265    2.4984    0.2023 C.3     1  UNL1        0.0293
      7 C          -0.7737    3.4726   -0.6210 C.3     1  UNL1       -0.0445
      8 C           0.2793    2.9123    1.6837 C.3     1  UNL1       -0.0445
      9 C          -1.7252   -2.4700   -0.0688 C.ar    1  UNL1       -0.0154
     10 C          -3.0977   -2.4109   -0.2770 C.ar    1  UNL1       -0.0512
     11 C          -3.9522   -3.5088   -0.2446 C.ar    1  UNL1       -0.0259
     12 C          -3.4375   -4.7756   -0.0390 C.ar    1  UNL1        0.1234
     13 C          -2.0720   -4.9016    0.1280 C.ar    1  UNL1       -0.0259
     14 C          -1.2708   -3.7664    0.1199 C.ar    1  UNL1       -0.0512
     15 C           1.7516   -2.4186   -0.1067 C.ar    1  UNL1       -0.0149
     16 C           3.0968   -2.3353   -0.4630 C.ar    1  UNL1       -0.0512
     17 C           3.9504   -3.4414   -0.4373 C.ar    1  UNL1       -0.0259
     18 C           3.4727   -4.6997   -0.0947 C.ar    1  UNL1        0.1234
     19 C           2.1352   -4.8284    0.2194 C.ar    1  UNL1       -0.0259
     20 C           1.3317   -3.6983    0.2216 C.ar    1  UNL1       -0.0512
     21 C          -2.5215    0.9912    0.0159 C.3     1  UNL1       -0.0093
     22 C          -3.7203    0.1621    0.3417 C.3     1  UNL1       -0.0214
     23 C          -5.1149    0.7272    0.0680 C.3     1  UNL1        0.0579
     24 C          -6.0415   -0.5109    0.1897 C.3     1  UNL1       -0.0004
     25 O          -5.2128    1.2726   -1.2592 O.3     1  UNL1       -0.3917
     26 C          -7.5125   -0.1698    0.0236 C.3     1  UNL1        0.0626
     27 C          -8.3377   -1.4652    0.1007 C.3     1  UNL1        0.0130
     28 O          -7.7401    0.4589   -1.2390 O.3     1  UNL1       -0.3913
     29 C          -9.7847   -1.1052    0.0126 C.2     1  UNL1        0.0442
     30 O         -10.1488    0.2014   -0.0112 O.co2   1  UNL1       -0.5497
     31 O         -10.6476   -1.9900   -0.0030 O.co2   1  UNL1       -0.5497
     32 C           2.5389    0.9083   -0.0730 C.2     1  UNL1        0.2654
     33 O           2.6752    2.0869   -0.4311 O.2     1  UNL1       -0.2682
     34 N           3.6599    0.2173    0.3474 N.am    1  UNL1       -0.2803
     35 C           5.0018    0.6106    0.1389 C.ar    1  UNL1        0.0344
     36 C           5.4177    1.9203   -0.0765 C.ar    1  UNL1       -0.0404
     37 C           6.7792    2.1848   -0.2139 C.ar    1  UNL1       -0.0593
     38 C           7.7145    1.1530   -0.1588 C.ar    1  UNL1       -0.0495
     39 C           7.2972   -0.1629    0.0212 C.ar    1  UNL1        0.0386
     40 C           5.9423   -0.4080    0.1759 C.ar    1  UNL1       -0.0283
     41 F          -4.2361   -5.8544   -0.0199 F       1  UNL1       -0.2055
     42 F           4.2819   -5.7756   -0.0527 F       1  UNL1       -0.2055
     43 C           8.2043   -1.3727    0.0317 C.2     1  UNL1        0.2462
     44 O           7.6522   -2.4792    0.0670 O.2     1  UNL1       -0.2700
     45 N           9.6408   -1.3657   -0.0033 N.am    1  UNL1       -0.3036
     46 C          10.3192   -2.6326   -0.0072 C.3     1  UNL1        0.0031
     47 C          10.4380   -0.1692    0.0019 C.3     1  UNL1        0.0031
     48 H           1.0577    2.6632   -0.2983 H       1  UNL1        0.0522
     49 H          -1.7749    3.4364   -0.2453 H       1  UNL1        0.0249
     50 H          -0.7681    3.1797   -1.6501 H       1  UNL1        0.0249
     51 H          -0.3951    4.4694   -0.5318 H       1  UNL1        0.0249
     52 H          -0.6463    2.7521    2.1961 H       1  UNL1        0.0249
     53 H           0.5432    3.9477    1.7393 H       1  UNL1        0.0249
     54 H           1.0467    2.3235    2.1412 H       1  UNL1        0.0249
     55 H          -3.5134   -1.4862   -0.4695 H       1  UNL1        0.0624
     56 H          -4.9677   -3.3778   -0.3737 H       1  UNL1        0.0646
     57 H          -1.6492   -5.8340    0.2581 H       1  UNL1        0.0646
     58 H          -0.2577   -3.8985    0.2658 H       1  UNL1        0.0624
     59 H           3.4767   -1.4219   -0.7570 H       1  UNL1        0.0624
     60 H           4.9474   -3.3219   -0.6757 H       1  UNL1        0.0646
     61 H           1.7384   -5.7529    0.4495 H       1  UNL1        0.0646
     62 H           0.3423   -3.8195    0.4889 H       1  UNL1        0.0624
     63 H          -2.6784    1.4119   -0.9553 H       1  UNL1        0.0329
     64 H          -2.4544    1.6963    0.8179 H       1  UNL1        0.0329
     65 H          -3.6349   -0.7450   -0.2193 H       1  UNL1        0.0294
     66 H          -3.6863    0.0732    1.4075 H       1  UNL1        0.0294
     67 H          -5.3635    1.5225    0.7392 H       1  UNL1        0.0594
     68 H          -5.9000   -0.9491    1.1556 H       1  UNL1        0.0315
     69 H          -5.7786   -1.1862   -0.5976 H       1  UNL1        0.0315
     70 H          -4.9952    0.5852   -1.9081 H       1  UNL1        0.2098
     71 H          -7.8052    0.5037    0.8018 H       1  UNL1        0.0598
     72 H          -8.1444   -1.9627    1.0281 H       1  UNL1        0.0350
     73 H          -8.0712   -2.1205   -0.7021 H       1  UNL1        0.0350
     74 H          -7.4778   -0.1438   -1.9523 H       1  UNL1        0.2098
     75 H           3.5104   -0.6243    0.8359 H       1  UNL1        0.1552
     76 H           4.7277    2.6856   -0.1338 H       1  UNL1        0.0636
     77 H           7.0983    3.1556   -0.3581 H       1  UNL1        0.0618
     78 H           8.7202    1.3652   -0.2518 H       1  UNL1        0.0625
     79 H           5.6232   -1.3783    0.3232 H       1  UNL1        0.0644
     80 H           9.5982   -3.4232   -0.0108 H       1  UNL1        0.0428
     81 H          10.9313   -2.7121    0.8668 H       1  UNL1        0.0428
     82 H          10.9332   -2.7057   -0.8805 H       1  UNL1        0.0428
     83 H           9.7962    0.6870    0.0043 H       1  UNL1        0.0428
     84 H          11.0564   -0.1489   -0.8710 H       1  UNL1        0.0428
     85 H          11.0546   -0.1552    0.8763 H       1  UNL1        0.0428
@<TRIPOS>UNITY_ATOM_ATTR
30 1
charge -1
@<TRIPOS>BOND
     1    10    11   ar
     2    22    23    1
     3     5     1   ar
     4    23    24    1
     5    11    12   ar
     6    23    25    1
     7     1     2   ar
     8    24    26    1
     9    12    13   ar
    10    26    27    1
    11     4     6    1
    12    26    28    1
    13    13    14   ar
    14    27    29    1
    15    14     9   ar
    16    29    30   ar
    17     2     9    1
    18    29    31   ar
    19     5    32    1
    20     6     7    1
    21    32    33    2
    22    15    16   ar
    23    32    34   am
    24    34    35    1
    25    16    17   ar
    26    35    36   ar
    27     6     8    1
    28    36    37   ar
    29    17    18   ar
    30    37    38   ar
    31     2     3   ar
    32    38    39   ar
    33    18    19   ar
    34    39    40   ar
    35    40    35   ar
    36     3     4   ar
    37    12    41    1
    38    19    20   ar
    39    18    42    1
    40    20    15   ar
    41    39    43    1
    42     1    15    1
    43    43    44    2
    44     9    10   ar
    45    43    45   am
    46     3    21    1
    47    45    46    1
    48     4     5   ar
    49    45    47    1
    50    21    22    1
    51     6    48    1
    52     7    49    1
    53     7    50    1
    54     7    51    1
    55     8    52    1
    56     8    53    1
    57     8    54    1
    58    10    55    1
    59    11    56    1
    60    13    57    1
    61    14    58    1
    62    16    59    1
    63    17    60    1
    64    19    61    1
    65    20    62    1
    66    21    63    1
    67    21    64    1
    68    22    65    1
    69    22    66    1
    70    23    67    1
    71    24    68    1
    72    24    69    1
    73    25    70    1
    74    26    71    1
    75    27    72    1
    76    27    73    1
    77    28    74    1
    78    34    75    1
    79    36    76    1
    80    37    77    1
    81    38    78    1
    82    40    79    1
    83    46    80    1
    84    46    81    1
    85    46    82    1
    86    47    83    1
    87    47    84    1
    88    47    85    1
@<TRIPOS>MOLECULE
BDB50215676
 72 75 0 0 0
SMALL
GASTEIGER

@<TRIPOS>ATOM
      1 C           2.5077    1.6988   -0.3704 C.ar    1  UNL1        0.0068
      2 C           3.5328    0.7251   -0.2594 C.ar    1  UNL1        0.0277
      3 N           2.9576   -0.4678   -0.0357 N.ar    1  UNL1       -0.3369
      4 C           5.1184    0.8315   -0.3594 C.3     1  UNL1       -0.0094
      5 C           5.6813    2.1982   -0.4728 C.3     1  UNL1       -0.0214
      6 C           7.1428    2.3409   -0.8310 C.3     1  UNL1        0.0579
      7 C           7.3408    3.8616   -1.0027 C.3     1  UNL1       -0.0004
      8 O           7.4297    1.6637   -2.0605 O.3     1  UNL1       -0.3917
      9 C           8.7820    4.2153   -1.3100 C.3     1  UNL1        0.0626
     10 C           8.8922    5.7357   -1.4895 C.3     1  UNL1        0.0130
     11 O           9.2003    3.5642   -2.5086 O.3     1  UNL1       -0.3913
     12 C          10.3244    6.0790   -1.7309 C.2     1  UNL1        0.0442
     13 O          11.2665    5.1040   -1.6762 O.co2   1  UNL1       -0.5497
     14 O          10.6545    7.2492   -1.9510 O.co2   1  UNL1       -0.5497
     15 C           2.5309    3.3075   -0.6390 C.ar    1  UNL1       -0.0157
     16 C           3.6889    4.0180   -0.9420 C.ar    1  UNL1       -0.0513
     17 C           3.7251    5.3872   -1.1479 C.ar    1  UNL1       -0.0259
     18 C           2.5526    6.1161   -1.0730 C.ar    1  UNL1        0.1234
     19 C           1.3686    5.4500   -0.7949 C.ar    1  UNL1       -0.0259
     20 C           1.3706    4.0722   -0.5807 C.ar    1  UNL1       -0.0513
     21 F           2.5695    7.4420   -1.2738 F       1  UNL1       -0.2055
     22 C           3.6465   -1.7516    0.2865 C.3     1  UNL1        0.0293
     23 C           4.7777   -2.2618   -0.6526 C.3     1  UNL1       -0.0445
     24 C           3.9667   -1.9147    1.7884 C.3     1  UNL1       -0.0445
     25 C           1.6294   -0.3576   -0.0170 C.ar    1  UNL1        0.1091
     26 C           1.3111    0.9830   -0.2010 C.ar    1  UNL1       -0.0094
     27 C          -0.0690    1.5955   -0.2161 C.3     1  UNL1       -0.0235
     28 C           0.6933   -1.5616    0.1946 C.2     1  UNL1        0.2676
     29 C          -1.1379    0.7670    0.4422 C.3     1  UNL1       -0.0327
     30 N          -0.7323   -1.5388    0.0203 N.am    1  UNL1       -0.2662
     31 C          -1.4110   -0.4030   -0.4516 C.3     1  UNL1        0.0204
     32 O           1.2062   -2.6468    0.4749 O.2     1  UNL1       -0.2680
     33 C          -1.5361   -2.6928    0.2756 C.ar    1  UNL1        0.0366
     34 C          -1.0020   -3.8756    0.7767 C.ar    1  UNL1       -0.0403
     35 C          -1.8157   -4.9768    1.0115 C.ar    1  UNL1       -0.0600
     36 C          -3.1766   -4.9018    0.7454 C.ar    1  UNL1       -0.0616
     37 C          -3.7185   -3.7236    0.2474 C.ar    1  UNL1       -0.0600
     38 C          -2.9006   -2.6243    0.0152 C.ar    1  UNL1       -0.0403
     39 H           5.4280    0.2793   -1.2220 H       1  UNL1        0.0329
     40 H           5.4882    0.4478    0.5685 H       1  UNL1        0.0329
     41 H           5.5376    2.6799    0.4717 H       1  UNL1        0.0294
     42 H           5.1615    2.6312   -1.3018 H       1  UNL1        0.0294
     43 H           7.7885    1.9177   -0.0901 H       1  UNL1        0.0594
     44 H           6.7226    4.2018   -1.8070 H       1  UNL1        0.0315
     45 H           7.0733    4.3358   -0.0816 H       1  UNL1        0.0315
     46 H           6.8637    2.0176   -2.7643 H       1  UNL1        0.2098
     47 H           9.4082    3.8939   -0.5041 H       1  UNL1        0.0598
     48 H           8.5461    6.2299   -0.6058 H       1  UNL1        0.0350
     49 H           8.2936    6.0524   -2.3179 H       1  UNL1        0.0350
     50 H           8.6375    3.8500   -3.2451 H       1  UNL1        0.2098
     51 H           4.5740    3.4928   -1.0178 H       1  UNL1        0.0624
     52 H           4.6192    5.8591   -1.3553 H       1  UNL1        0.0646
     53 H           0.4822    5.9763   -0.7463 H       1  UNL1        0.0646
     54 H           0.4765    3.6016   -0.3708 H       1  UNL1        0.0624
     55 H           2.8745   -2.4490    0.0363 H       1  UNL1        0.0522
     56 H           5.6493   -1.6546   -0.5237 H       1  UNL1        0.0249
     57 H           4.4501   -2.2041   -1.6696 H       1  UNL1        0.0249
     58 H           5.0115   -3.2774   -0.4102 H       1  UNL1        0.0249
     59 H           4.7379   -1.2267    2.0654 H       1  UNL1        0.0249
     60 H           4.2968   -2.9150    1.9761 H       1  UNL1        0.0249
     61 H           3.0872   -1.7154    2.3643 H       1  UNL1        0.0249
     62 H          -0.3515    1.7526   -1.2361 H       1  UNL1        0.0315
     63 H          -0.0011    2.5012    0.3495 H       1  UNL1        0.0315
     64 H          -2.0275    1.3486    0.5655 H       1  UNL1        0.0284
     65 H          -0.8191    0.4377    1.4091 H       1  UNL1        0.0284
     66 H          -1.0767   -0.1771   -1.4426 H       1  UNL1        0.0469
     67 H          -2.4625   -0.6008   -0.4587 H       1  UNL1        0.0469
     68 H           0.0088   -3.9356    0.9760 H       1  UNL1        0.0636
     69 H          -1.4093   -5.8495    1.3832 H       1  UNL1        0.0618
     70 H          -3.7834   -5.7187    0.9171 H       1  UNL1        0.0618
     71 H          -4.7297   -3.6646    0.0496 H       1  UNL1        0.0618
     72 H          -3.3086   -1.7509   -0.3531 H       1  UNL1        0.0636
@<TRIPOS>UNITY_ATOM_ATTR
13 1
charge -1
@<TRIPOS>BOND
     1    18    19   ar
     2     7     9    1
     3    19    20   ar
     4    20    15   ar
     5     1    15    1
     6     2     4    1
     7    18    21    1
     8     9    10    1
     9     3    22    1
    10    26     1   ar
    11    22    23    1
    12     9    11    1
    13    22    24    1
    14     4     5    1
    15    10    12    1
    16    25    26   ar
    17     1     2   ar
    18    26    27    1
    19    12    13   ar
    20    25    28    1
    21     5     6    1
    22    27    29    1
    23    12    14   ar
    24    28    30   am
    25     2     3   ar
    26    29    31    1
    27    30    31    1
    28     6     7    1
    29    28    32    2
    30    15    16   ar
    31     3    25   ar
    32    33    34   ar
    33    16    17   ar
    34    34    35   ar
    35     6     8    1
    36    35    36   ar
    37    17    18   ar
    38    36    37   ar
    39    37    38   ar
    40    38    33   ar
    41    30    33    1
    42     4    39    1
    43     4    40    1
    44     5    41    1
    45     5    42    1
    46     6    43    1
    47     7    44    1
    48     7    45    1
    49     8    46    1
    50     9    47    1
    51    10    48    1
    52    10    49    1
    53    11    50    1
    54    16    51    1
    55    17    52    1
    56    19    53    1
    57    20    54    1
    58    22    55    1
    59    23    56    1
    60    23    57    1
    61    23    58    1
    62    24    59    1
    63    24    60    1
    64    24    61    1
    65    27    62    1
    66    27    63    1
    67    29    64    1
    68    29    65    1
    69    31    66    1
    70    31    67    1
    71    34    68    1
    72    35    69    1
    73    36    70    1
    74    37    71    1
    75    38    72    1
@<TRIPOS>MOLECULE
BDB50215689
 79 82 0 0 0
SMALL
GASTEIGER

@<TRIPOS>ATOM
      1 C           0.7095   -1.0663    0.0100 C.ar    1  UNL1        0.0201
      2 C          -0.6974   -1.0960   -0.0461 C.ar    1  UNL1        0.0113
      3 C          -1.1105    0.2727   -0.0446 C.ar    1  UNL1        0.0280
      4 N          -0.0235    1.0328    0.0573 N.ar    1  UNL1       -0.3366
      5 C           1.0921    0.3124    0.0523 C.ar    1  UNL1        0.1135
      6 C          -0.0696    2.4871    0.3044 C.3     1  UNL1        0.0293
      7 C          -0.3919    3.4081   -0.9046 C.3     1  UNL1       -0.0445
      8 C          -0.6475    2.9511    1.6698 C.3     1  UNL1       -0.0445
      9 C          -1.6951   -2.4303   -0.1143 C.ar    1  UNL1       -0.0154
     10 C          -3.0490   -2.3798   -0.3777 C.ar    1  UNL1       -0.0512
     11 C          -3.9001   -3.4849   -0.3299 C.ar    1  UNL1       -0.0259
     12 C          -3.3815   -4.7382   -0.0605 C.ar    1  UNL1        0.1234
     13 C          -2.0208   -4.8514    0.1613 C.ar    1  UNL1       -0.0259
     14 C          -1.2240   -3.7169    0.1547 C.ar    1  UNL1       -0.0512
     15 C           1.7832   -2.2993   -0.0089 C.ar    1  UNL1       -0.0151
     16 C           3.1439   -2.1100    0.0284 C.ar    1  UNL1       -0.0539
     17 C           4.0785   -3.1456    0.0238 C.ar    1  UNL1       -0.0612
     18 C           3.6497   -4.4596   -0.0082 C.ar    1  UNL1       -0.0617
     19 C           2.2863   -4.7005   -0.0482 C.ar    1  UNL1       -0.0612
     20 C           1.3940   -3.6423   -0.0568 C.ar    1  UNL1       -0.0539
     21 C          -2.5385    0.9788   -0.1468 C.3     1  UNL1       -0.0093
     22 C          -3.7117    0.1893    0.3436 C.3     1  UNL1       -0.0214
     23 C          -5.1053    0.7440    0.0454 C.3     1  UNL1        0.0579
     24 C          -6.0306   -0.4856    0.2193 C.3     1  UNL1       -0.0004
     25 O          -5.2043    1.2321   -1.3054 O.3     1  UNL1       -0.3917
     26 C          -7.5013   -0.1540    0.0373 C.3     1  UNL1        0.0626
     27 C          -8.3190   -1.4528    0.1347 C.3     1  UNL1        0.0130
     28 O          -7.7256    0.4481   -1.2395 O.3     1  UNL1       -0.3913
     29 C          -9.7667   -1.1050    0.0235 C.2     1  UNL1        0.0442
     30 O         -10.1400    0.1984   -0.0171 O.co2   1  UNL1       -0.5497
     31 O         -10.6224   -1.9965    0.0014 O.co2   1  UNL1       -0.5497
     32 C           2.5592    0.9370    0.0774 C.2     1  UNL1        0.2654
     33 O           3.5459    0.2280    0.0432 O.2     1  UNL1       -0.2682
     34 N           2.8405    2.3468    0.0869 N.am    1  UNL1       -0.2803
     35 C           4.1455    2.8703    0.0549 C.ar    1  UNL1        0.0338
     36 C           5.2920    2.0823    0.0244 C.ar    1  UNL1       -0.0398
     37 C           6.5489    2.6755   -0.0011 C.ar    1  UNL1       -0.0479
     38 C           6.6576    4.0606    0.0011 C.ar    1  UNL1        0.0366
     39 C           5.5146    4.8469    0.0255 C.ar    1  UNL1       -0.0479
     40 C           4.2638    4.2529    0.0532 C.ar    1  UNL1       -0.0398
     41 F          -4.1738   -5.8218   -0.0314 F       1  UNL1       -0.2055
     42 C           7.9664    4.6980   -0.0140 C.2     1  UNL1        0.2415
     43 O           8.9900    4.0060   -0.0236 O.2     1  UNL1       -0.2704
     44 N           8.0637    6.0955   -0.0069 N.am    1  UNL1       -0.3253
     45 H           0.9775    2.6665    0.4318 H       1  UNL1        0.0522
     46 H          -1.4308    3.3273   -1.1475 H       1  UNL1        0.0249
     47 H           0.1957    3.1091   -1.7473 H       1  UNL1        0.0249
     48 H          -0.1626    4.4221   -0.6516 H       1  UNL1        0.0249
     49 H          -1.7095    2.8202    1.6706 H       1  UNL1        0.0249
     50 H          -0.4154    3.9844    1.8227 H       1  UNL1        0.0249
     51 H          -0.2157    2.3683    2.4564 H       1  UNL1        0.0249
     52 H          -3.4585   -1.4657   -0.6261 H       1  UNL1        0.0624
     53 H          -4.9120   -3.3672   -0.4949 H       1  UNL1        0.0646
     54 H          -1.5998   -5.7782    0.3313 H       1  UNL1        0.0646
     55 H          -0.2194   -3.8305    0.3616 H       1  UNL1        0.0624
     56 H           3.4965   -1.1407    0.0619 H       1  UNL1        0.0624
     57 H           5.0878   -2.9314    0.0442 H       1  UNL1        0.0618
     58 H           4.3263   -5.2388   -0.0024 H       1  UNL1        0.0618
     59 H           1.9351   -5.6706   -0.0716 H       1  UNL1        0.0618
     60 H           0.3853   -3.8559   -0.1010 H       1  UNL1        0.0624
     61 H          -2.7121    1.2132   -1.1763 H       1  UNL1        0.0329
     62 H          -2.4801    1.8295    0.4996 H       1  UNL1        0.0329
     63 H          -3.6203    0.1045    1.4063 H       1  UNL1        0.0294
     64 H          -3.6638   -0.7353   -0.1929 H       1  UNL1        0.0294
     65 H          -5.3523    1.5682    0.6814 H       1  UNL1        0.0594
     66 H          -5.8899   -0.8814    1.2034 H       1  UNL1        0.0315
     67 H          -5.7667   -1.1935   -0.5384 H       1  UNL1        0.0315
     68 H          -4.9882    0.5171   -1.9242 H       1  UNL1        0.2098
     69 H          -7.8016    0.5346    0.7993 H       1  UNL1        0.0598
     70 H          -8.1323   -1.9282    1.0750 H       1  UNL1        0.0350
     71 H          -8.0398   -2.1239   -0.6505 H       1  UNL1        0.0350
     72 H          -7.4567   -0.1677   -1.9391 H       1  UNL1        0.2098
     73 H           2.0837    2.9757    0.1172 H       1  UNL1        0.1552
     74 H           5.2088    1.0537    0.0207 H       1  UNL1        0.0636
     75 H           7.3980    2.0893   -0.0216 H       1  UNL1        0.0626
     76 H           5.5966    5.8756    0.0230 H       1  UNL1        0.0626
     77 H           3.4160    4.8411    0.0727 H       1  UNL1        0.0636
     78 H           7.2474    6.6457    0.0007 H       1  UNL1        0.1453
     79 H           8.9484    6.5274   -0.0096 H       1  UNL1        0.1453
@<TRIPOS>UNITY_ATOM_ATTR
30 1
charge -1
@<TRIPOS>BOND
     1     3    21    1
     2     4     5   ar
     3    21    22    1
     4    10    11   ar
     5    22    23    1
     6     5     1   ar
     7    23    24    1
     8    11    12   ar
     9    23    25    1
    10     1     2   ar
    11    24    26    1
    12    12    13   ar
    13    26    27    1
    14     4     6    1
    15    26    28    1
    16    13    14   ar
    17    27    29    1
    18    14     9   ar
    19    29    30   ar
    20     2     9    1
    21    29    31   ar
    22     5    32    1
    23     6     7    1
    24    32    33    2
    25    15    16   ar
    26    32    34   am
    27    34    35    1
    28    16    17   ar
    29    35    36   ar
    30     6     8    1
    31    36    37   ar
    32    17    18   ar
    33    37    38   ar
    34     2     3   ar
    35    38    39   ar
    36    18    19   ar
    37    39    40   ar
    38    40    35   ar
    39     3     4   ar
    40    12    41    1
    41    19    20   ar
    42    38    42    1
    43    20    15   ar
    44    42    43    2
    45     1    15    1
    46    42    44   am
    47     9    10   ar
    48     6    45    1
    49     7    46    1
    50     7    47    1
    51     7    48    1
    52     8    49    1
    53     8    50    1
    54     8    51    1
    55    10    52    1
    56    11    53    1
    57    13    54    1
    58    14    55    1
    59    16    56    1
    60    17    57    1
    61    18    58    1
    62    19    59    1
    63    20    60    1
    64    21    61    1
    65    21    62    1
    66    22    63    1
    67    22    64    1
    68    23    65    1
    69    24    66    1
    70    24    67    1
    71    25    68    1
    72    26    69    1
    73    27    70    1
    74    27    71    1
    75    28    72    1
    76    34    73    1
    77    36    74    1
    78    37    75    1
    79    39    76    1
    80    40    77    1
    81    44    78    1
    82    44    79    1
@<TRIPOS>MOLECULE
BDB50215700
 76 79 0 0 0
SMALL
GASTEIGER

@<TRIPOS>ATOM
      1 C           0.7218   -1.0588    0.0134 C.ar    1  UNL1        0.0201
      2 C          -0.7032   -1.0959   -0.0435 C.ar    1  UNL1        0.0113
      3 C          -1.1059    0.2669   -0.0402 C.ar    1  UNL1        0.0280
      4 N          -0.0249    1.0343    0.0616 N.ar    1  UNL1       -0.3366
      5 C           1.0926    0.3075    0.0564 C.ar    1  UNL1        0.1135
      6 C          -0.0754    2.4816    0.2857 C.3     1  UNL1        0.0293
      7 C          -0.3201    3.4068   -0.9356 C.3     1  UNL1       -0.0445
      8 C          -0.6210    2.9808    1.6529 C.3     1  UNL1       -0.0445
      9 C          -1.6859   -2.4376   -0.1112 C.ar    1  UNL1       -0.0154
     10 C          -1.2215   -3.7191    0.1485 C.ar    1  UNL1       -0.0512
     11 C          -2.0195   -4.8568    0.1548 C.ar    1  UNL1       -0.0259
     12 C          -3.3804   -4.7408   -0.0612 C.ar    1  UNL1        0.1234
     13 C          -3.8981   -3.4845   -0.3229 C.ar    1  UNL1       -0.0259
     14 C          -3.0505   -2.3817   -0.3699 C.ar    1  UNL1       -0.0512
     15 C           1.7793   -2.2984   -0.0036 C.ar    1  UNL1       -0.0151
     16 C           3.1512   -2.0983    0.0589 C.ar    1  UNL1       -0.0539
     17 C           4.0802   -3.1324    0.0523 C.ar    1  UNL1       -0.0612
     18 C           3.6545   -4.4489   -0.0008 C.ar    1  UNL1       -0.0617
     19 C           2.2939   -4.6934   -0.0597 C.ar    1  UNL1       -0.0612
     20 C           1.4004   -3.6302   -0.0700 C.ar    1  UNL1       -0.0539
     21 C          -2.5343    0.9807   -0.1420 C.3     1  UNL1       -0.0093
     22 C          -3.7104    0.1896    0.3415 C.3     1  UNL1       -0.0214
     23 C          -5.1041    0.7457    0.0448 C.3     1  UNL1        0.0579
     24 C          -6.0304   -0.4834    0.2191 C.3     1  UNL1       -0.0004
     25 O          -5.2036    1.2340   -1.3057 O.3     1  UNL1       -0.3917
     26 C          -7.5015   -0.1519    0.0371 C.3     1  UNL1        0.0626
     27 C          -8.3187   -1.4510    0.1354 C.3     1  UNL1        0.0130
     28 O          -7.7259    0.4492   -1.2401 O.3     1  UNL1       -0.3913
     29 C          -9.7668   -1.1045    0.0237 C.2     1  UNL1        0.0442
     30 O         -10.1414    0.1985   -0.0177 O.co2   1  UNL1       -0.5497
     31 O         -10.6216   -1.9969    0.0016 O.co2   1  UNL1       -0.5497
     32 C           2.5615    0.9465    0.0730 C.2     1  UNL1        0.2654
     33 O           3.5456    0.2453   -0.0825 O.2     1  UNL1       -0.2682
     34 N           2.8406    2.3595    0.1832 N.am    1  UNL1       -0.2803
     35 C           4.1401    2.9033    0.0676 C.ar    1  UNL1        0.0339
     36 C           5.2809    2.1262   -0.1088 C.ar    1  UNL1       -0.0370
     37 C           6.5284    2.7293   -0.2166 C.ar    1  UNL1       -0.0184
     38 C           6.6376    4.1132   -0.1531 C.ar    1  UNL1        0.1170
     39 C           5.5016    4.8921    0.0186 C.ar    1  UNL1       -0.0184
     40 C           4.2585    4.2857    0.1306 C.ar    1  UNL1       -0.0370
     41 F          -4.1743   -5.8233   -0.0340 F       1  UNL1       -0.2055
     42 O           7.8799    4.7212   -0.2585 O.3     1  UNL1       -0.5068
     43 H           0.9747    2.6370    0.4196 H       1  UNL1        0.0522
     44 H          -1.3536    3.3692   -1.2102 H       1  UNL1        0.0249
     45 H           0.2797    3.0776   -1.7583 H       1  UNL1        0.0249
     46 H          -0.0552    4.4116   -0.6806 H       1  UNL1        0.0249
     47 H          -1.6865    2.8842    1.6684 H       1  UNL1        0.0249
     48 H          -0.3539    4.0078    1.7900 H       1  UNL1        0.0249
     49 H          -0.1981    2.3940    2.4414 H       1  UNL1        0.0249
     50 H          -0.2161   -3.8351    0.3505 H       1  UNL1        0.0624
     51 H          -1.5982   -5.7843    0.3200 H       1  UNL1        0.0646
     52 H          -4.9107   -3.3656   -0.4829 H       1  UNL1        0.0646
     53 H          -3.4604   -1.4660   -0.6117 H       1  UNL1        0.0624
     54 H           3.5008   -1.1288    0.1132 H       1  UNL1        0.0624
     55 H           5.0892   -2.9184    0.0870 H       1  UNL1        0.0618
     56 H           4.3333   -5.2263    0.0034 H       1  UNL1        0.0618
     57 H           1.9438   -5.6635   -0.0959 H       1  UNL1        0.0618
     58 H           0.3928   -3.8448   -0.1308 H       1  UNL1        0.0624
     59 H          -2.7050    1.2221   -1.1704 H       1  UNL1        0.0329
     60 H          -2.4753    1.8283    0.5084 H       1  UNL1        0.0329
     61 H          -3.6209    0.0986    1.4039 H       1  UNL1        0.0294
     62 H          -3.6623   -0.7310   -0.2017 H       1  UNL1        0.0294
     63 H          -5.3500    1.5699    0.6813 H       1  UNL1        0.0594
     64 H          -5.8898   -0.8789    1.2033 H       1  UNL1        0.0315
     65 H          -5.7669   -1.1913   -0.5388 H       1  UNL1        0.0315
     66 H          -4.9885    0.5189   -1.9248 H       1  UNL1        0.2098
     67 H          -7.8020    0.5372    0.7985 H       1  UNL1        0.0598
     68 H          -8.1319   -1.9255    1.0761 H       1  UNL1        0.0350
     69 H          -8.0390   -2.1223   -0.6494 H       1  UNL1        0.0350
     70 H          -7.4568   -0.1670   -1.9392 H       1  UNL1        0.2098
     71 H           2.0889    2.9738    0.3468 H       1  UNL1        0.1552
     72 H           5.2003    1.0986   -0.1597 H       1  UNL1        0.0637
     73 H           7.3729    2.1499   -0.3437 H       1  UNL1        0.0655
     74 H           5.5813    5.9201    0.0629 H       1  UNL1        0.0655
     75 H           3.4155    4.8664    0.2617 H       1  UNL1        0.0637
     76 H           8.6489    4.1986   -0.3745 H       1  UNL1        0.2921
@<TRIPOS>UNITY_ATOM_ATTR
30 1
charge -1
@<TRIPOS>BOND
     1     1    15    1
     2     9    10   ar
     3     3    21    1
     4     4     5   ar
     5    21    22    1
     6    10    11   ar
     7    22    23    1
     8     5     1   ar
     9    23    24    1
    10    11    12   ar
    11    23    25    1
    12     1     2   ar
    13    24    26    1
    14    12    13   ar
    15    26    27    1
    16     4     6    1
    17    26    28    1
    18    13    14   ar
    19    27    29    1
    20    14     9   ar
    21    29    30   ar
    22     2     9    1
    23    29    31   ar
    24     5    32    1
    25     6     7    1
    26    32    33    2
    27    15    16   ar
    28    32    34   am
    29    34    35    1
    30    16    17   ar
    31    35    36   ar
    32     6     8    1
    33    36    37   ar
    34    17    18   ar
    35    37    38   ar
    36     2     3   ar
    37    38    39   ar
    38    18    19   ar
    39    39    40   ar
    40    40    35   ar
    41     3     4   ar
    42    12    41    1
    43    19    20   ar
    44    38    42    1
    45    20    15   ar
    46     6    43    1
    47     7    44    1
    48     7    45    1
    49     7    46    1
    50     8    47    1
    51     8    48    1
    52     8    49    1
    53    10    50    1
    54    11    51    1
    55    13    52    1
    56    14    53    1
    57    16    54    1
    58    17    55    1
    59    18    56    1
    60    19    57    1
    61    20    58    1
    62    21    59    1
    63    21    60    1
    64    22    61    1
    65    22    62    1
    66    23    63    1
    67    24    64    1
    68    24    65    1
    69    25    66    1
    70    26    67    1
    71    27    68    1
    72    27    69    1
    73    28    70    1
    74    34    71    1
    75    36    72    1
    76    37    73    1
    77    39    74    1
    78    40    75    1
    79    42    76    1
@<TRIPOS>MOLECULE
BDB50215704
 81 84 0 0 0
SMALL
GASTEIGER

@<TRIPOS>ATOM
      1 C           0.7338   -1.0548    0.0136 C.ar    1  UNL1        0.0201
      2 C          -0.6913   -1.0897   -0.0385 C.ar    1  UNL1        0.0113
      3 C          -1.0909    0.2755   -0.0341 C.ar    1  UNL1        0.0280
      4 N          -0.0045    1.0408    0.0618 N.ar    1  UNL1       -0.3367
      5 C           1.1088    0.3092    0.0532 C.ar    1  UNL1        0.1132
      6 C          -0.0306    2.4933    0.2932 C.3     1  UNL1        0.0293
      7 C          -0.3464    3.3980   -0.9268 C.3     1  UNL1       -0.0445
      8 C          -0.6231    2.9749    1.6462 C.3     1  UNL1       -0.0445
      9 C          -1.6751   -2.4386   -0.1037 C.ar    1  UNL1       -0.0154
     10 C          -1.2035   -3.7211    0.1373 C.ar    1  UNL1       -0.0512
     11 C          -1.9952   -4.8633    0.1424 C.ar    1  UNL1       -0.0259
     12 C          -3.3588   -4.7533   -0.0583 C.ar    1  UNL1        0.1234
     13 C          -3.8850   -3.4970   -0.3016 C.ar    1  UNL1       -0.0259
     14 C          -3.0432   -2.3896   -0.3456 C.ar    1  UNL1       -0.0512
     15 C           1.7906   -2.2893   -0.0061 C.ar    1  UNL1       -0.0151
     16 C           3.1616   -2.0820    0.0315 C.ar    1  UNL1       -0.0539
     17 C           4.0960   -3.1107    0.0255 C.ar    1  UNL1       -0.0612
     18 C           3.6762   -4.4295   -0.0071 C.ar    1  UNL1       -0.0617
     19 C           2.3162   -4.6813   -0.0448 C.ar    1  UNL1       -0.0612
     20 C           1.4172   -3.6230   -0.0519 C.ar    1  UNL1       -0.0539
     21 C          -2.5249    0.9884   -0.1311 C.3     1  UNL1       -0.0093
     22 C          -3.7037    0.1860    0.3280 C.3     1  UNL1       -0.0214
     23 C          -5.1005    0.7400    0.0414 C.3     1  UNL1        0.0579
     24 C          -6.0263   -0.4919    0.2102 C.3     1  UNL1       -0.0004
     25 O          -5.2059    1.2378   -1.3042 O.3     1  UNL1       -0.3917
     26 C          -7.4989   -0.1577    0.0348 C.3     1  UNL1        0.0626
     27 C          -8.3197   -1.4552    0.1304 C.3     1  UNL1        0.0130
     28 O          -7.7263    0.4487   -1.2393 O.3     1  UNL1       -0.3913
     29 C          -9.7680   -1.1047    0.0232 C.2     1  UNL1        0.0442
     30 O         -10.1397    0.1993   -0.0159 O.co2   1  UNL1       -0.5497
     31 O         -10.6251   -1.9949    0.0019 O.co2   1  UNL1       -0.5497
     32 C           2.5789    0.9438    0.0724 C.2     1  UNL1        0.2615
     33 O           3.5863    0.2582    0.0034 O.2     1  UNL1       -0.2686
     34 N           2.8798    2.3176    0.1094 N.am    1  UNL1       -0.3045
     35 C           4.2491    2.7215    0.0450 C.3     1  UNL1        0.0560
     36 F          -4.1469   -5.8406   -0.0336 F       1  UNL1       -0.2055
     37 C           4.2879    4.2117    0.0210 C.ar    1  UNL1        0.0803
     38 N           3.2098    4.9903    0.0178 N.ar    1  UNL1       -0.1746
     39 N           3.5982    6.1958    0.0028 N.ar    1  UNL1       -0.2713
     40 C           4.9228    6.2678   -0.0032 C.ar    1  UNL1        0.0361
     41 C           5.4392    4.9837    0.0067 C.ar    1  UNL1       -0.0165
     42 C           2.7176    7.3258    0.0000 C.3     1  UNL1        0.0305
     43 C           5.7284    7.5326   -0.0157 C.3     1  UNL1       -0.0227
     44 H           1.0166    2.6672    0.4277 H       1  UNL1        0.0522
     45 H          -1.3847    3.3164   -1.1721 H       1  UNL1        0.0249
     46 H           0.2433    3.0869   -1.7637 H       1  UNL1        0.0249
     47 H          -0.1156    4.4147   -0.6861 H       1  UNL1        0.0249
     48 H          -1.6856    2.8493    1.6351 H       1  UNL1        0.0249
     49 H          -0.3876    4.0086    1.7909 H       1  UNL1        0.0249
     50 H          -0.2041    2.3985    2.4444 H       1  UNL1        0.0249
     51 H          -0.1952   -3.8346    0.3258 H       1  UNL1        0.0624
     52 H          -1.5671   -5.7898    0.2954 H       1  UNL1        0.0646
     53 H          -4.8997   -3.3814   -0.4501 H       1  UNL1        0.0646
     54 H          -3.4612   -1.4737   -0.5722 H       1  UNL1        0.0624
     55 H           3.5069   -1.1101    0.0658 H       1  UNL1        0.0624
     56 H           5.1042   -2.8912    0.0454 H       1  UNL1        0.0618
     57 H           4.3588   -5.2035   -0.0034 H       1  UNL1        0.0618
     58 H           1.9707   -5.6535   -0.0676 H       1  UNL1        0.0618
     59 H           0.4098   -3.8431   -0.0938 H       1  UNL1        0.0624
     60 H          -2.6891    1.2500   -1.1556 H       1  UNL1        0.0329
     61 H          -2.4722    1.8217    0.5380 H       1  UNL1        0.0329
     62 H          -3.6177    0.0709    1.3883 H       1  UNL1        0.0294
     63 H          -3.6513   -0.7186   -0.2411 H       1  UNL1        0.0294
     64 H          -5.3453    1.5580    0.6862 H       1  UNL1        0.0594
     65 H          -5.8826   -0.8943    1.1912 H       1  UNL1        0.0315
     66 H          -5.7650   -1.1952   -0.5527 H       1  UNL1        0.0315
     67 H          -4.9918    0.5277   -1.9293 H       1  UNL1        0.2098
     68 H          -7.7951    0.5280    0.8009 H       1  UNL1        0.0598
     69 H          -8.1320   -1.9335    1.0690 H       1  UNL1        0.0350
     70 H          -8.0436   -2.1243   -0.6576 H       1  UNL1        0.0350
     71 H          -7.4608   -0.1654   -1.9417 H       1  UNL1        0.2098
     72 H           2.1615    2.9873    0.1783 H       1  UNL1        0.1494
     73 H           4.7015    2.3319   -0.8430 H       1  UNL1        0.0528
     74 H           4.7873    2.3487    0.8913 H       1  UNL1        0.0528
     75 H           6.4254    4.6798    0.0041 H       1  UNL1        0.0654
     76 H           1.7027    6.9871    0.0062 H       1  UNL1        0.0473
     77 H           2.8925    7.9121   -0.8778 H       1  UNL1        0.0473
     78 H           2.8999    7.9222    0.8695 H       1  UNL1        0.0473
     79 H           5.0691    8.3753   -0.0215 H       1  UNL1        0.0292
     80 H           6.3436    7.5550   -0.8909 H       1  UNL1        0.0292
     81 H           6.3473    7.5699    0.8564 H       1  UNL1        0.0292
@<TRIPOS>UNITY_ATOM_ATTR
30 1
charge -1
@<TRIPOS>BOND
     1     9    10   ar
     2     3    21    1
     3     4     5   ar
     4    21    22    1
     5    10    11   ar
     6    22    23    1
     7     5     1   ar
     8    23    24    1
     9    11    12   ar
    10    23    25    1
    11     1     2   ar
    12    24    26    1
    13    12    13   ar
    14    26    27    1
    15     4     6    1
    16    26    28    1
    17    13    14   ar
    18    27    29    1
    19    14     9   ar
    20    29    30   ar
    21     2     9    1
    22    29    31   ar
    23     5    32    1
    24     6     7    1
    25    32    33    2
    26    15    16   ar
    27    32    34   am
    28    34    35    1
    29    16    17   ar
    30    12    36    1
    31     6     8    1
    32    35    37    1
    33    37    38   ar
    34    17    18   ar
    35     2     3   ar
    36    18    19   ar
    37     3     4   ar
    38    38    39   ar
    39    39    40   ar
    40    40    41   ar
    41    41    37   ar
    42    19    20   ar
    43    39    42    1
    44    20    15   ar
    45    40    43    1
    46     1    15    1
    47     6    44    1
    48     7    45    1
    49     7    46    1
    50     7    47    1
    51     8    48    1
    52     8    49    1
    53     8    50    1
    54    10    51    1
    55    11    52    1
    56    13    53    1
    57    14    54    1
    58    16    55    1
    59    17    56    1
    60    18    57    1
    61    19    58    1
    62    20    59    1
    63    21    60    1
    64    21    61    1
    65    22    62    1
    66    22    63    1
    67    23    64    1
    68    24    65    1
    69    24    66    1
    70    25    67    1
    71    26    68    1
    72    27    69    1
    73    27    70    1
    74    28    71    1
    75    34    72    1
    76    35    73    1
    77    35    74    1
    78    41    75    1
    79    42    76    1
    80    42    77    1
    81    42    78    1
    82    43    79    1
    83    43    80    1
    84    43    81    1
@<TRIPOS>MOLECULE
BDB50215707
 85 88 0 0 0
SMALL
GASTEIGER

@<TRIPOS>ATOM
      1 C           0.7258   -1.0669    0.0133 C.ar    1  UNL1        0.0201
      2 C          -0.6845   -1.1022   -0.0376 C.ar    1  UNL1        0.0113
      3 C          -1.0980    0.2651   -0.0344 C.ar    1  UNL1        0.0280
      4 N          -0.0112    1.0284    0.0602 N.ar    1  UNL1       -0.3367
      5 C           1.1056    0.3087    0.0527 C.ar    1  UNL1        0.1132
      6 C          -0.0540    2.4851    0.2857 C.3     1  UNL1        0.0293
      7 C          -0.3747    3.3865   -0.9362 C.3     1  UNL1       -0.0445
      8 C          -0.6327    2.9701    1.6437 C.3     1  UNL1       -0.0445
      9 C          -1.6756   -2.4457   -0.1030 C.ar    1  UNL1       -0.0154
     10 C          -3.0347   -2.3991   -0.3498 C.ar    1  UNL1       -0.0512
     11 C          -3.8811   -3.5065   -0.3058 C.ar    1  UNL1       -0.0259
     12 C          -3.3555   -4.7607   -0.0559 C.ar    1  UNL1        0.1234
     13 C          -1.9919   -4.8705    0.1499 C.ar    1  UNL1       -0.0259
     14 C          -1.1983   -3.7324    0.1453 C.ar    1  UNL1       -0.0512
     15 C           1.7985   -2.2866   -0.0062 C.ar    1  UNL1       -0.0151
     16 C           3.1582   -2.0795    0.0332 C.ar    1  UNL1       -0.0539
     17 C           4.1018   -3.1053    0.0265 C.ar    1  UNL1       -0.0612
     18 C           3.6859   -4.4238   -0.0089 C.ar    1  UNL1       -0.0617
     19 C           2.3254   -4.6799   -0.0490 C.ar    1  UNL1       -0.0612
     20 C           1.4219   -3.6306   -0.0556 C.ar    1  UNL1       -0.0539
     21 C          -2.5298    0.9735   -0.1307 C.3     1  UNL1       -0.0093
     22 C          -3.7083    0.1723    0.3271 C.3     1  UNL1       -0.0214
     23 C          -5.1029    0.7292    0.0420 C.3     1  UNL1        0.0579
     24 C          -6.0285   -0.5026    0.2057 C.3     1  UNL1       -0.0004
     25 O          -5.2072    1.2333   -1.3016 O.3     1  UNL1       -0.3917
     26 C          -7.4995   -0.1655    0.0334 C.3     1  UNL1        0.0626
     27 C          -8.3227   -1.4613    0.1248 C.3     1  UNL1        0.0130
     28 O          -7.7269    0.4467   -1.2377 O.3     1  UNL1       -0.3913
     29 C          -9.7697   -1.1055    0.0218 C.2     1  UNL1        0.0442
     30 O         -10.1365    0.2001   -0.0136 O.co2   1  UNL1       -0.5497
     31 O         -10.6302   -1.9924    0.0012 O.co2   1  UNL1       -0.5497
     32 C           2.5745    0.9400    0.0705 C.2     1  UNL1        0.2614
     33 O           3.5869    0.2623    0.0036 O.2     1  UNL1       -0.2686
     34 N           2.8571    2.3118    0.1069 N.am    1  UNL1       -0.3060
     35 C           4.2353    2.7426    0.0406 C.3     1  UNL1        0.0372
     36 F          -4.1445   -5.8470   -0.0299 F       1  UNL1       -0.2055
     37 C           4.3354    4.2527    0.0198 C.ar    1  UNL1       -0.0303
     38 C           3.1873    5.0359    0.0189 C.ar    1  UNL1       -0.0567
     39 C           3.2764    6.4182    0.0080 C.ar    1  UNL1       -0.0561
     40 C           4.5228    7.0260   -0.0024 C.ar    1  UNL1       -0.0219
     41 C           5.6777    6.2519   -0.0052 C.ar    1  UNL1       -0.0561
     42 C           5.5837    4.8644    0.0053 C.ar    1  UNL1       -0.0567
     43 C           4.6002    8.5148   -0.0091 C.3     1  UNL1        0.0723
     44 O           3.2645    9.0287    0.0032 O.3     1  UNL1       -0.3784
     45 C           3.2955   10.4548    0.0002 C.3     1  UNL1        0.0369
     46 H           0.9931    2.6656    0.4119 H       1  UNL1        0.0522
     47 H          -1.4134    3.3023   -1.1787 H       1  UNL1        0.0249
     48 H           0.2135    3.0745   -1.7738 H       1  UNL1        0.0249
     49 H          -0.1453    4.4043   -0.6986 H       1  UNL1        0.0249
     50 H          -1.6948    2.8402    1.6456 H       1  UNL1        0.0249
     51 H          -0.3998    4.0053    1.7813 H       1  UNL1        0.0249
     52 H          -0.2021    2.3988    2.4393 H       1  UNL1        0.0249
     53 H          -3.4509   -1.4838   -0.5821 H       1  UNL1        0.0624
     54 H          -4.8950   -3.3904   -0.4590 H       1  UNL1        0.0646
     55 H          -1.5657   -5.7972    0.3066 H       1  UNL1        0.0646
     56 H          -0.1907   -3.8452    0.3379 H       1  UNL1        0.0624
     57 H           3.4998   -1.1064    0.0699 H       1  UNL1        0.0624
     58 H           5.1090   -2.8814    0.0479 H       1  UNL1        0.0618
     59 H           4.3707   -5.1959   -0.0055 H       1  UNL1        0.0618
     60 H           1.9847   -5.6537   -0.0740 H       1  UNL1        0.0618
     61 H           0.4153   -3.8539   -0.0994 H       1  UNL1        0.0624
     62 H          -2.4921    1.8629    0.4629 H       1  UNL1        0.0329
     63 H          -2.6915    1.1399   -1.1752 H       1  UNL1        0.0329
     64 H          -3.6221    0.0550    1.3872 H       1  UNL1        0.0294
     65 H          -3.6574   -0.7317   -0.2431 H       1  UNL1        0.0294
     66 H          -5.3476    1.5453    0.6893 H       1  UNL1        0.0594
     67 H          -5.8843   -0.9100    1.1845 H       1  UNL1        0.0315
     68 H          -5.7684   -1.2030   -0.5603 H       1  UNL1        0.0315
     69 H          -4.9933    0.5259   -1.9299 H       1  UNL1        0.2098
     70 H          -7.7937    0.5175    0.8028 H       1  UNL1        0.0598
     71 H          -8.1346   -1.9443    1.0609 H       1  UNL1        0.0350
     72 H          -8.0497   -2.1282   -0.6661 H       1  UNL1        0.0350
     73 H          -7.4631   -0.1648   -1.9429 H       1  UNL1        0.2098
     74 H           2.1293    2.9712    0.1765 H       1  UNL1        0.1494
     75 H           4.6812    2.3508   -0.8497 H       1  UNL1        0.0512
     76 H           4.7459    2.3807    0.9085 H       1  UNL1        0.0512
     77 H           2.2598    4.5834    0.0264 H       1  UNL1        0.0621
     78 H           2.4193    6.9930    0.0076 H       1  UNL1        0.0621
     79 H           6.6041    6.7066   -0.0151 H       1  UNL1        0.0621
     80 H           6.4404    4.2890    0.0023 H       1  UNL1        0.0621
     81 H           5.1090    8.8477   -0.8896 H       1  UNL1        0.0610
     82 H           5.1393    8.8622    0.8474 H       1  UNL1        0.0610
     83 H           2.2947   10.8333    0.0094 H       1  UNL1        0.0524
     84 H           3.7988   10.7988   -0.8791 H       1  UNL1        0.0524
     85 H           3.8162   10.8021    0.8681 H       1  UNL1        0.0524
@<TRIPOS>UNITY_ATOM_ATTR
30 1
charge -1
@<TRIPOS>BOND
     1     4     5   ar
     2    21    22    1
     3    10    11   ar
     4    22    23    1
     5     5     1   ar
     6    23    24    1
     7    11    12   ar
     8    23    25    1
     9     1     2   ar
    10    24    26    1
    11    12    13   ar
    12    26    27    1
    13     4     6    1
    14    26    28    1
    15    13    14   ar
    16    27    29    1
    17    14     9   ar
    18    29    30   ar
    19     2     9    1
    20    29    31   ar
    21     5    32    1
    22     6     7    1
    23    32    33    2
    24    15    16   ar
    25    32    34   am
    26    34    35    1
    27    16    17   ar
    28    12    36    1
    29     6     8    1
    30    35    37    1
    31    17    18   ar
    32    37    38   ar
    33     2     3   ar
    34    38    39   ar
    35    18    19   ar
    36    39    40   ar
    37     3     4   ar
    38    40    41   ar
    39    19    20   ar
    40    41    42   ar
    41    42    37   ar
    42    20    15   ar
    43    40    43    1
    44     1    15    1
    45    43    44    1
    46     9    10   ar
    47    44    45    1
    48     3    21    1
    49     6    46    1
    50     7    47    1
    51     7    48    1
    52     7    49    1
    53     8    50    1
    54     8    51    1
    55     8    52    1
    56    10    53    1
    57    11    54    1
    58    13    55    1
    59    14    56    1
    60    16    57    1
    61    17    58    1
    62    18    59    1
    63    19    60    1
    64    20    61    1
    65    21    62    1
    66    21    63    1
    67    22    64    1
    68    22    65    1
    69    23    66    1
    70    24    67    1
    71    24    68    1
    72    25    69    1
    73    26    70    1
    74    27    71    1
    75    27    72    1
    76    28    73    1
    77    34    74    1
    78    35    75    1
    79    35    76    1
    80    38    77    1
    81    39    78    1
    82    41    79    1
    83    42    80    1
    84    43    81    1
    85    43    82    1
    86    45    83    1
    87    45    84    1
    88    45    85    1
@<TRIPOS>MOLECULE
BDB50215699
 76 79 0 0 0
SMALL
GASTEIGER

@<TRIPOS>ATOM
      1 C           0.7198   -1.0594    0.0215 C.ar    1  UNL1        0.0201
      2 C          -0.7052   -1.0928   -0.0416 C.ar    1  UNL1        0.0113
      3 C          -1.1044    0.2710   -0.0376 C.ar    1  UNL1        0.0280
      4 N          -0.0218    1.0361    0.0709 N.ar    1  UNL1       -0.3366
      5 C           1.0940    0.3053    0.0717 C.ar    1  UNL1        0.1135
      6 C          -0.0707    2.4862    0.3011 C.3     1  UNL1        0.0293
      7 C          -0.3472    3.4071   -0.9190 C.3     1  UNL1       -0.0445
      8 C          -0.6314    2.9750    1.6650 C.3     1  UNL1       -0.0445
      9 C          -1.6946   -2.4338   -0.1133 C.ar    1  UNL1       -0.0154
     10 C          -1.2367   -3.7167    0.1503 C.ar    1  UNL1       -0.0512
     11 C          -2.0353   -4.8535    0.1556 C.ar    1  UNL1       -0.0259
     12 C          -3.3947   -4.7348   -0.0643 C.ar    1  UNL1        0.1234
     13 C          -3.9083   -3.4772   -0.3292 C.ar    1  UNL1       -0.0259
     14 C          -3.0584   -2.3758   -0.3764 C.ar    1  UNL1       -0.0512
     15 C           1.7720   -2.3037    0.0004 C.ar    1  UNL1       -0.0149
     16 C           3.1474   -2.1188    0.0460 C.ar    1  UNL1       -0.0512
     17 C           4.0630   -3.1657    0.0394 C.ar    1  UNL1       -0.0259
     18 C           3.6146   -4.4753   -0.0027 C.ar    1  UNL1        0.1234
     19 C           2.2528   -4.7063   -0.0504 C.ar    1  UNL1       -0.0259
     20 C           1.3770   -3.6302   -0.0569 C.ar    1  UNL1       -0.0512
     21 C          -2.5330    0.9844   -0.1437 C.3     1  UNL1       -0.0093
     22 C          -3.7083    0.1952    0.3449 C.3     1  UNL1       -0.0214
     23 C          -5.1030    0.7487    0.0453 C.3     1  UNL1        0.0579
     24 C          -6.0286   -0.4814    0.2206 C.3     1  UNL1       -0.0004
     25 O          -5.2023    1.2345   -1.3062 O.3     1  UNL1       -0.3917
     26 C          -7.5003   -0.1512    0.0376 C.3     1  UNL1        0.0626
     27 C          -8.3172   -1.4507    0.1362 C.3     1  UNL1        0.0130
     28 O          -7.7249    0.4490   -1.2401 O.3     1  UNL1       -0.3913
     29 C          -9.7655   -1.1046    0.0239 C.2     1  UNL1        0.0442
     30 O         -10.1404    0.1983   -0.0177 O.co2   1  UNL1       -0.5497
     31 O         -10.6202   -1.9972    0.0017 O.co2   1  UNL1       -0.5497
     32 C           2.5646    0.9358    0.1058 C.2     1  UNL1        0.2654
     33 O           3.5509    0.2267    0.0185 O.2     1  UNL1       -0.2682
     34 N           2.8433    2.3459    0.1528 N.am    1  UNL1       -0.2802
     35 C           4.1397    2.8810    0.0591 C.ar    1  UNL1        0.0372
     36 C           5.2951    2.1062    0.0346 C.ar    1  UNL1       -0.0402
     37 C           6.5403    2.7147   -0.0734 C.ar    1  UNL1       -0.0566
     38 C           6.6333    4.0984   -0.1692 C.ar    1  UNL1       -0.0201
     39 C           5.4789    4.8712   -0.1501 C.ar    1  UNL1        0.1186
     40 C           4.2400    4.2616   -0.0301 C.ar    1  UNL1        0.0011
     41 F          -4.1904   -5.8158   -0.0376 F       1  UNL1       -0.2055
     42 F           4.4774   -5.4998   -0.0034 F       1  UNL1       -0.2055
     43 O           5.5523    6.2521   -0.2536 O.3     1  UNL1       -0.5067
     44 H           0.9781    2.6514    0.4343 H       1  UNL1        0.0522
     45 H          -1.3830    3.3503   -1.1812 H       1  UNL1        0.0249
     46 H           0.2487    3.0885   -1.7486 H       1  UNL1        0.0249
     47 H          -0.0977    4.4168   -0.6676 H       1  UNL1        0.0249
     48 H          -1.6957    2.8650    1.6731 H       1  UNL1        0.0249
     49 H          -0.3782    4.0050    1.8062 H       1  UNL1        0.0249
     50 H          -0.2065    2.3917    2.4550 H       1  UNL1        0.0249
     51 H          -0.2325   -3.8348    0.3569 H       1  UNL1        0.0624
     52 H          -1.6158   -5.7815    0.3228 H       1  UNL1        0.0646
     53 H          -4.9202   -3.3562   -0.4915 H       1  UNL1        0.0646
     54 H          -3.4658   -1.4599   -0.6218 H       1  UNL1        0.0624
     55 H           3.5095   -1.1533    0.0870 H       1  UNL1        0.0624
     56 H           5.0753   -2.9668    0.0658 H       1  UNL1        0.0646
     57 H           1.8901   -5.6720   -0.0810 H       1  UNL1        0.0646
     58 H           0.3660   -3.8310   -0.1077 H       1  UNL1        0.0624
     59 H          -2.7040    1.2196   -1.1734 H       1  UNL1        0.0329
     60 H          -2.4743    1.8363    0.5010 H       1  UNL1        0.0329
     61 H          -3.6183    0.1105    1.4077 H       1  UNL1        0.0294
     62 H          -3.6597   -0.7286   -0.1929 H       1  UNL1        0.0294
     63 H          -5.3501    1.5736    0.6804 H       1  UNL1        0.0594
     64 H          -5.8880   -0.8757    1.2053 H       1  UNL1        0.0315
     65 H          -5.7642   -1.1899   -0.5364 H       1  UNL1        0.0315
     66 H          -4.9860    0.5185   -1.9239 H       1  UNL1        0.2098
     67 H          -7.8012    0.5380    0.7987 H       1  UNL1        0.0598
     68 H          -8.1305   -1.9247    1.0771 H       1  UNL1        0.0350
     69 H          -8.0371   -2.1223   -0.6482 H       1  UNL1        0.0350
     70 H          -7.4554   -0.1675   -1.9388 H       1  UNL1        0.2098
     71 H           2.0874    2.9682    0.2559 H       1  UNL1        0.1552
     72 H           5.2276    1.0783    0.0967 H       1  UNL1        0.0636
     73 H           7.3965    2.1386   -0.0825 H       1  UNL1        0.0619
     74 H           7.5572    4.5503   -0.2543 H       1  UNL1        0.0654
     75 H           3.3853    4.8395   -0.0069 H       1  UNL1        0.0673
     76 H           6.3859    6.6722   -0.3351 H       1  UNL1        0.2921
@<TRIPOS>UNITY_ATOM_ATTR
30 1
charge -1
@<TRIPOS>BOND
     1     9    10   ar
     2     3    21    1
     3     4     5   ar
     4    21    22    1
     5    10    11   ar
     6    22    23    1
     7     5     1   ar
     8    23    24    1
     9    11    12   ar
    10    23    25    1
    11     1     2   ar
    12    24    26    1
    13    12    13   ar
    14    26    27    1
    15     4     6    1
    16    26    28    1
    17    13    14   ar
    18    27    29    1
    19    14     9   ar
    20    29    30   ar
    21     2     9    1
    22    29    31   ar
    23     5    32    1
    24     6     7    1
    25    32    33    2
    26    15    16   ar
    27    32    34   am
    28    34    35    1
    29    16    17   ar
    30    35    36   ar
    31     6     8    1
    32    36    37   ar
    33    17    18   ar
    34    37    38   ar
    35     2     3   ar
    36    38    39   ar
    37    18    19   ar
    38    39    40   ar
    39    40    35   ar
    40     3     4   ar
    41    12    41    1
    42    19    20   ar
    43    18    42    1
    44    20    15   ar
    45    39    43    1
    46     1    15    1
    47     6    44    1
    48     7    45    1
    49     7    46    1
    50     7    47    1
    51     8    48    1
    52     8    49    1
    53     8    50    1
    54    10    51    1
    55    11    52    1
    56    13    53    1
    57    14    54    1
    58    16    55    1
    59    17    56    1
    60    19    57    1
    61    20    58    1
    62    21    59    1
    63    21    60    1
    64    22    61    1
    65    22    62    1
    66    23    63    1
    67    24    64    1
    68    24    65    1
    69    25    66    1
    70    26    67    1
    71    27    68    1
    72    27    69    1
    73    28    70    1
    74    34    71    1
    75    36    72    1
    76    37    73    1
    77    38    74    1
    78    40    75    1
    79    43    76    1
@<TRIPOS>MOLECULE
BDB50215684
 77 80 0 0 0
SMALL
GASTEIGER

@<TRIPOS>ATOM
      1 C           0.7289   -1.0573    0.0134 C.ar    1  UNL1        0.0201
      2 C          -0.6946   -1.0935   -0.0391 C.ar    1  UNL1        0.0113
      3 C          -1.0973    0.2708   -0.0352 C.ar    1  UNL1        0.0280
      4 N          -0.0124    1.0372    0.0611 N.ar    1  UNL1       -0.3367
      5 C           1.1027    0.3083    0.0535 C.ar    1  UNL1        0.1132
      6 C          -0.0456    2.4898    0.2895 C.3     1  UNL1        0.0293
      7 C          -0.3703    3.3910   -0.9310 C.3     1  UNL1       -0.0445
      8 C          -0.6326    2.9711    1.6450 C.3     1  UNL1       -0.0445
      9 C          -1.6776   -2.4398   -0.1047 C.ar    1  UNL1       -0.0154
     10 C          -1.2067   -3.7214    0.1460 C.ar    1  UNL1       -0.0512
     11 C          -1.9994   -4.8627    0.1507 C.ar    1  UNL1       -0.0259
     12 C          -3.3616   -4.7526   -0.0596 C.ar    1  UNL1        0.1234
     13 C          -3.8860   -3.4973   -0.3122 C.ar    1  UNL1       -0.0259
     14 C          -3.0433   -2.3903   -0.3561 C.ar    1  UNL1       -0.0512
     15 C           1.7879   -2.2892   -0.0062 C.ar    1  UNL1       -0.0151
     16 C           3.1575   -2.0801    0.0333 C.ar    1  UNL1       -0.0539
     17 C           4.0936   -3.1079    0.0269 C.ar    1  UNL1       -0.0612
     18 C           3.6753   -4.4270   -0.0078 C.ar    1  UNL1       -0.0617
     19 C           2.3155   -4.6807   -0.0479 C.ar    1  UNL1       -0.0612
     20 C           1.4149   -3.6241   -0.0548 C.ar    1  UNL1       -0.0539
     21 C          -2.5309    0.9808   -0.1332 C.3     1  UNL1       -0.0093
     22 C          -3.7082    0.1826    0.3353 C.3     1  UNL1       -0.0214
     23 C          -5.1027    0.7398    0.0443 C.3     1  UNL1        0.0579
     24 C          -6.0304   -0.4893    0.2149 C.3     1  UNL1       -0.0004
     25 O          -5.2045    1.2343   -1.3033 O.3     1  UNL1       -0.3917
     26 C          -7.5019   -0.1546    0.0359 C.3     1  UNL1        0.0626
     27 C          -8.3216   -1.4524    0.1331 C.3     1  UNL1        0.0130
     28 O          -7.7269    0.4491   -1.2400 O.3     1  UNL1       -0.3913
     29 C          -9.7697   -1.1042    0.0232 C.2     1  UNL1        0.0442
     30 O         -10.1432    0.1992   -0.0175 O.co2   1  UNL1       -0.5497
     31 O         -10.6254   -1.9958    0.0016 O.co2   1  UNL1       -0.5497
     32 C           2.5714    0.9455    0.0730 C.2     1  UNL1        0.2615
     33 O           3.5814    0.2629    0.0056 O.2     1  UNL1       -0.2686
     34 N           2.8630    2.3213    0.1091 N.am    1  UNL1       -0.3045
     35 C           4.2301    2.7397    0.0452 C.3     1  UNL1        0.0543
     36 F          -4.1503   -5.8394   -0.0354 F       1  UNL1       -0.2055
     37 C           4.2760    4.2375    0.0207 C.ar    1  UNL1        0.0583
     38 N           3.1414    4.9295    0.0198 N.ar    1  UNL1       -0.2583
     39 C           3.1317    6.2565    0.0039 C.ar    1  UNL1        0.0279
     40 C           4.3236    6.9696   -0.0105 C.ar    1  UNL1       -0.0436
     41 C           5.5276    6.2794   -0.0109 C.ar    1  UNL1       -0.0586
     42 C           5.5013    4.8920    0.0039 C.ar    1  UNL1       -0.0388
     43 H           1.0013    2.6696    0.4183 H       1  UNL1        0.0522
     44 H          -1.4092    3.3043   -1.1720 H       1  UNL1        0.0249
     45 H           0.2174    3.0810   -1.7697 H       1  UNL1        0.0249
     46 H          -0.1431    4.4092   -0.6931 H       1  UNL1        0.0249
     47 H          -1.6945    2.8401    1.6404 H       1  UNL1        0.0249
     48 H          -0.4015    4.0063    1.7863 H       1  UNL1        0.0249
     49 H          -0.2060    2.3984    2.4419 H       1  UNL1        0.0249
     50 H          -0.1998   -3.8342    0.3422 H       1  UNL1        0.0624
     51 H          -1.5731   -5.7888    0.3105 H       1  UNL1        0.0646
     52 H          -4.8997   -3.3820   -0.4677 H       1  UNL1        0.0646
     53 H          -3.4590   -1.4752   -0.5901 H       1  UNL1        0.0624
     54 H           3.5014   -1.1077    0.0695 H       1  UNL1        0.0624
     55 H           5.1015   -2.8872    0.0480 H       1  UNL1        0.0618
     56 H           4.3589   -5.2001   -0.0039 H       1  UNL1        0.0618
     57 H           1.9715   -5.6534   -0.0726 H       1  UNL1        0.0618
     58 H           0.4078   -3.8452   -0.0987 H       1  UNL1        0.0624
     59 H          -2.6981    1.2342   -1.1592 H       1  UNL1        0.0329
     60 H          -2.4765    1.8188    0.5299 H       1  UNL1        0.0329
     61 H          -3.6210    0.0763    1.3964 H       1  UNL1        0.0294
     62 H          -3.6579   -0.7289   -0.2229 H       1  UNL1        0.0294
     63 H          -5.3469    1.5606    0.6858 H       1  UNL1        0.0594
     64 H          -5.8891   -0.8889    1.1974 H       1  UNL1        0.0315
     65 H          -5.7687   -1.1947   -0.5459 H       1  UNL1        0.0315
     66 H          -4.9909    0.5220   -1.9261 H       1  UNL1        0.2098
     67 H          -7.8000    0.5335    0.7991 H       1  UNL1        0.0598
     68 H          -8.1346   -1.9284    1.0730 H       1  UNL1        0.0350
     69 H          -8.0438   -2.1227   -0.6533 H       1  UNL1        0.0350
     70 H          -7.4599   -0.1664   -1.9405 H       1  UNL1        0.2098
     71 H           2.1390    2.9849    0.1772 H       1  UNL1        0.1494
     72 H           4.6839    2.3514   -0.8426 H       1  UNL1        0.0527
     73 H           4.7627    2.3735    0.8979 H       1  UNL1        0.0527
     74 H           2.2321    6.7622    0.0022 H       1  UNL1        0.0829
     75 H           4.3139    8.0015   -0.0208 H       1  UNL1        0.0633
     76 H           6.4254    6.7882   -0.0220 H       1  UNL1        0.0619
     77 H           6.3813    4.3529    0.0024 H       1  UNL1        0.0636
@<TRIPOS>UNITY_ATOM_ATTR
30 1
charge -1
@<TRIPOS>BOND
     1     1    15    1
     2     9    10   ar
     3     3    21    1
     4     4     5   ar
     5    21    22    1
     6    10    11   ar
     7    22    23    1
     8     5     1   ar
     9    23    24    1
    10    11    12   ar
    11    23    25    1
    12     1     2   ar
    13    24    26    1
    14    12    13   ar
    15    26    27    1
    16     4     6    1
    17    26    28    1
    18    13    14   ar
    19    27    29    1
    20    14     9   ar
    21    29    30   ar
    22     2     9    1
    23    29    31   ar
    24     5    32    1
    25     6     7    1
    26    32    33    2
    27    15    16   ar
    28    32    34   am
    29    34    35    1
    30    16    17   ar
    31    12    36    1
    32     6     8    1
    33    35    37    1
    34    17    18   ar
    35    37    38   ar
    36     2     3   ar
    37    38    39   ar
    38    18    19   ar
    39    39    40   ar
    40     3     4   ar
    41    40    41   ar
    42    19    20   ar
    43    41    42   ar
    44    42    37   ar
    45    20    15   ar
    46     6    43    1
    47     7    44    1
    48     7    45    1
    49     7    46    1
    50     8    47    1
    51     8    48    1
    52     8    49    1
    53    10    50    1
    54    11    51    1
    55    13    52    1
    56    14    53    1
    57    16    54    1
    58    17    55    1
    59    18    56    1
    60    19    57    1
    61    20    58    1
    62    21    59    1
    63    21    60    1
    64    22    61    1
    65    22    62    1
    66    23    63    1
    67    24    64    1
    68    24    65    1
    69    25    66    1
    70    26    67    1
    71    27    68    1
    72    27    69    1
    73    28    70    1
    74    34    71    1
    75    35    72    1
    76    35    73    1
    77    39    74    1
    78    40    75    1
    79    41    76    1
    80    42    77    1
@<TRIPOS>MOLECULE
BDB50215708
 82 85 0 0 0
SMALL
GASTEIGER

@<TRIPOS>ATOM
      1 C           0.7262   -1.0680    0.0133 C.ar    1  UNL1        0.0201
      2 C          -0.6840   -1.1027   -0.0378 C.ar    1  UNL1        0.0113
      3 C          -1.0972    0.2647   -0.0347 C.ar    1  UNL1        0.0280
      4 N          -0.0100    1.0277    0.0604 N.ar    1  UNL1       -0.3367
      5 C           1.1066    0.3075    0.0531 C.ar    1  UNL1        0.1132
      6 C          -0.0530    2.4846    0.2869 C.3     1  UNL1        0.0293
      7 C          -0.3748    3.3863   -0.9346 C.3     1  UNL1       -0.0445
      8 C          -0.6326    2.9685    1.6448 C.3     1  UNL1       -0.0445
      9 C          -1.6755   -2.4458   -0.1032 C.ar    1  UNL1       -0.0154
     10 C          -3.0345   -2.3991   -0.3499 C.ar    1  UNL1       -0.0512
     11 C          -3.8811   -3.5063   -0.3059 C.ar    1  UNL1       -0.0259
     12 C          -3.3557   -4.7606   -0.0559 C.ar    1  UNL1        0.1234
     13 C          -1.9922   -4.8706    0.1498 C.ar    1  UNL1       -0.0259
     14 C          -1.1984   -3.7326    0.1452 C.ar    1  UNL1       -0.0512
     15 C           1.7987   -2.2878   -0.0063 C.ar    1  UNL1       -0.0151
     16 C           3.1583   -2.0809    0.0316 C.ar    1  UNL1       -0.0539
     17 C           4.1019   -3.1068    0.0249 C.ar    1  UNL1       -0.0612
     18 C           3.6857   -4.4253   -0.0092 C.ar    1  UNL1       -0.0617
     19 C           2.3252   -4.6812   -0.0482 C.ar    1  UNL1       -0.0612
     20 C           1.4219   -3.6318   -0.0546 C.ar    1  UNL1       -0.0539
     21 C          -2.5290    0.9735   -0.1307 C.3     1  UNL1       -0.0093
     22 C          -3.7078    0.1724    0.3269 C.3     1  UNL1       -0.0214
     23 C          -5.1025    0.7294    0.0420 C.3     1  UNL1        0.0579
     24 C          -6.0282   -0.5025    0.2056 C.3     1  UNL1       -0.0004
     25 O          -5.2070    1.2336   -1.3015 O.3     1  UNL1       -0.3917
     26 C          -7.4994   -0.1655    0.0335 C.3     1  UNL1        0.0626
     27 C          -8.3226   -1.4613    0.1248 C.3     1  UNL1        0.0130
     28 O          -7.7268    0.4468   -1.2376 O.3     1  UNL1       -0.3913
     29 C          -9.7696   -1.1055    0.0218 C.2     1  UNL1        0.0442
     30 O         -10.1365    0.2000   -0.0135 O.co2   1  UNL1       -0.5497
     31 O         -10.6301   -1.9924    0.0012 O.co2   1  UNL1       -0.5497
     32 C           2.5761    0.9381    0.0718 C.2     1  UNL1        0.2614
     33 O           3.5886    0.2604    0.0094 O.2     1  UNL1       -0.2686
     34 N           2.8579    2.3092    0.1049 N.am    1  UNL1       -0.3060
     35 C           4.2354    2.7417    0.0413 C.3     1  UNL1        0.0372
     36 F          -4.1448   -5.8467   -0.0299 F       1  UNL1       -0.2055
     37 C           4.3314    4.2523    0.0200 C.ar    1  UNL1       -0.0301
     38 C           3.1817    5.0330    0.0191 C.ar    1  UNL1       -0.0536
     39 C           3.2670    6.4159    0.0081 C.ar    1  UNL1       -0.0196
     40 C           4.5119    7.0295   -0.0024 C.ar    1  UNL1        0.1201
     41 C           5.6669    6.2552   -0.0056 C.ar    1  UNL1       -0.0196
     42 C           5.5776    4.8675    0.0053 C.ar    1  UNL1       -0.0536
     43 O           4.5991    8.4195   -0.0086 O.3     1  UNL1       -0.4951
     44 C           3.2829    8.9912   -0.0004 C.3     1  UNL1        0.0788
     45 H           0.9940    2.6655    0.4135 H       1  UNL1        0.0522
     46 H          -1.4135    3.3013   -1.1769 H       1  UNL1        0.0249
     47 H           0.2135    3.0751   -1.7724 H       1  UNL1        0.0249
     48 H          -0.1462    4.4041   -0.6966 H       1  UNL1        0.0249
     49 H          -1.6946    2.8380    1.6461 H       1  UNL1        0.0249
     50 H          -0.4003    4.0038    1.7831 H       1  UNL1        0.0249
     51 H          -0.2021    2.3970    2.4403 H       1  UNL1        0.0249
     52 H          -3.4506   -1.4837   -0.5822 H       1  UNL1        0.0624
     53 H          -4.8950   -3.3901   -0.4592 H       1  UNL1        0.0646
     54 H          -1.5662   -5.7974    0.3064 H       1  UNL1        0.0646
     55 H          -0.1908   -3.8455    0.3378 H       1  UNL1        0.0624
     56 H           3.5000   -1.1078    0.0671 H       1  UNL1        0.0624
     57 H           5.1091   -2.8830    0.0453 H       1  UNL1        0.0618
     58 H           4.3704   -5.1975   -0.0057 H       1  UNL1        0.0618
     59 H           1.9843   -5.6550   -0.0725 H       1  UNL1        0.0618
     60 H           0.4152   -3.8549   -0.0974 H       1  UNL1        0.0624
     61 H          -2.6930    1.2355   -1.1551 H       1  UNL1        0.0329
     62 H          -2.4766    1.8052    0.5405 H       1  UNL1        0.0329
     63 H          -3.6216    0.0549    1.3869 H       1  UNL1        0.0294
     64 H          -3.6571   -0.7313   -0.2437 H       1  UNL1        0.0294
     65 H          -5.3470    1.5454    0.6894 H       1  UNL1        0.0594
     66 H          -5.8838   -0.9101    1.1843 H       1  UNL1        0.0315
     67 H          -5.7681   -1.2027   -0.5606 H       1  UNL1        0.0315
     68 H          -4.9932    0.5262   -1.9299 H       1  UNL1        0.2098
     69 H          -7.7936    0.5173    0.8030 H       1  UNL1        0.0598
     70 H          -8.1345   -1.9443    1.0608 H       1  UNL1        0.0350
     71 H          -8.0496   -2.1282   -0.6662 H       1  UNL1        0.0350
     72 H          -7.4630   -0.1647   -1.9429 H       1  UNL1        0.2098
     73 H           2.1293    2.9681    0.1704 H       1  UNL1        0.1494
     74 H           4.6839    2.3504   -0.8478 H       1  UNL1        0.0512
     75 H           4.7456    2.3808    0.9098 H       1  UNL1        0.0512
     76 H           2.2553    4.5783    0.0267 H       1  UNL1        0.0622
     77 H           2.4079    6.9877    0.0077 H       1  UNL1        0.0654
     78 H           6.5925    6.7114   -0.0161 H       1  UNL1        0.0654
     79 H           6.4361    4.2948    0.0025 H       1  UNL1        0.0622
     80 H           3.3576   10.0586   -0.0052 H       1  UNL1        0.0660
     81 H           2.7618    8.6741    0.8787 H       1  UNL1        0.0660
     82 H           2.7479    8.6672   -0.8685 H       1  UNL1        0.0660
@<TRIPOS>UNITY_ATOM_ATTR
30 1
charge -1
@<TRIPOS>BOND
     1     3    21    1
     2     4     5   ar
     3    21    22    1
     4    10    11   ar
     5    22    23    1
     6     5     1   ar
     7    23    24    1
     8    11    12   ar
     9    23    25    1
    10     1     2   ar
    11    24    26    1
    12    12    13   ar
    13    26    27    1
    14     4     6    1
    15    26    28    1
    16    13    14   ar
    17    27    29    1
    18    14     9   ar
    19    29    30   ar
    20     2     9    1
    21    29    31   ar
    22     5    32    1
    23     6     7    1
    24    32    33    2
    25    15    16   ar
    26    32    34   am
    27    34    35    1
    28    16    17   ar
    29    12    36    1
    30     6     8    1
    31    35    37    1
    32    17    18   ar
    33    37    38   ar
    34     2     3   ar
    35    38    39   ar
    36    18    19   ar
    37    39    40   ar
    38     3     4   ar
    39    40    41   ar
    40    19    20   ar
    41    41    42   ar
    42    42    37   ar
    43    20    15   ar
    44    40    43    1
    45     1    15    1
    46    43    44    1
    47     9    10   ar
    48     6    45    1
    49     7    46    1
    50     7    47    1
    51     7    48    1
    52     8    49    1
    53     8    50    1
    54     8    51    1
    55    10    52    1
    56    11    53    1
    57    13    54    1
    58    14    55    1
    59    16    56    1
    60    17    57    1
    61    18    58    1
    62    19    59    1
    63    20    60    1
    64    21    61    1
    65    21    62    1
    66    22    63    1
    67    22    64    1
    68    23    65    1
    69    24    66    1
    70    24    67    1
    71    25    68    1
    72    26    69    1
    73    27    70    1
    74    27    71    1
    75    28    72    1
    76    34    73    1
    77    35    74    1
    78    35    75    1
    79    38    76    1
    80    39    77    1
    81    41    78    1
    82    42    79    1
    83    44    80    1
    84    44    81    1
    85    44    82    1
@<TRIPOS>MOLECULE
BDB50013215
 53 55 0 0 0
SMALL
GASTEIGER

@<TRIPOS>ATOM
      1 N           0.6720   -0.9228   -0.0002 N.ar    1  UNL1       -0.3192
      2 C           0.0107    1.1738    0.0000 C.ar    1  UNL1        0.0033
      3 C          -1.1024    0.3536   -0.0001 C.ar    1  UNL1        0.0074
      4 C           1.1090    0.3333   -0.0001 C.ar    1  UNL1        0.0284
      5 C          -0.6622   -0.9669   -0.0002 C.ar    1  UNL1        0.0184
      6 C           0.0239    2.6353    0.0002 C.2     1  UNL1       -0.0538
      7 C           3.9605    8.9776   -0.0130 C.2     1  UNL1        0.0442
      8 C          -2.4980    0.7958   -0.0001 C.ar    1  UNL1       -0.0157
      9 C           3.9882    7.4741    0.0574 C.3     1  UNL1        0.0130
     10 C           1.1732    3.3052   -0.0639 C.2     1  UNL1       -0.0552
     11 C           1.5017   -2.0515   -0.0002 C.ar    1  UNL1        0.0463
     12 O           2.7758    9.6349   -0.1177 O.co2   1  UNL1       -0.5497
     13 O           5.0184    9.6165    0.0217 O.co2   1  UNL1       -0.5497
     14 C           2.5509    6.9206   -0.0046 C.3     1  UNL1        0.0629
     15 C           2.5852    5.3737    0.0530 C.3     1  UNL1        0.0032
     16 C          -3.5231   -0.1430   -0.0002 C.ar    1  UNL1       -0.0513
     17 C          -2.7976    2.1531    0.0001 C.ar    1  UNL1       -0.0513
     18 C           2.5418    0.7636    0.0000 C.3     1  UNL1       -0.0233
     19 C          -5.1474    1.6331    0.0000 C.ar    1  UNL1        0.1234
     20 C           1.1509    4.8077   -0.0560 C.3     1  UNL1        0.0760
     21 C          -4.1225    2.5718    0.0001 C.ar    1  UNL1       -0.0259
     22 C          -4.8483    0.2758   -0.0001 C.ar    1  UNL1       -0.0259
     23 F          -6.4236    2.0374    0.0001 F       1  UNL1       -0.2055
     24 O           1.7989    7.4331    1.0983 O.3     1  UNL1       -0.3913
     25 O           0.3425    5.2636    1.0310 O.3     1  UNL1       -0.3877
     26 C           2.8831   -1.8975   -0.0001 C.ar    1  UNL1       -0.0379
     27 C           0.9445   -3.3251   -0.0003 C.ar    1  UNL1       -0.0379
     28 C           1.7686   -4.4442   -0.0003 C.ar    1  UNL1       -0.0598
     29 C           3.7072   -3.0167   -0.0001 C.ar    1  UNL1       -0.0598
     30 C           3.1499   -4.2899   -0.0002 C.ar    1  UNL1       -0.0616
     31 H          -1.2517   -1.8140   -0.0003 H       1  UNL1        0.0819
     32 H          -0.8670    3.1538    0.0506 H       1  UNL1        0.0622
     33 H           4.4464    7.1701    0.9753 H       1  UNL1        0.0350
     34 H           4.5492    7.0925   -0.7700 H       1  UNL1        0.0350
     35 H           2.0700    2.7975   -0.1184 H       1  UNL1        0.0598
     36 H           2.0884    7.2244   -0.9204 H       1  UNL1        0.0598
     37 H           3.0189    5.0634    0.9806 H       1  UNL1        0.0318
     38 H           3.1708    5.0051   -0.7632 H       1  UNL1        0.0318
     39 H          -3.3002   -1.1506   -0.0003 H       1  UNL1        0.0624
     40 H          -2.0362    2.8497    0.0002 H       1  UNL1        0.0624
     41 H           2.5932    1.8324    0.0001 H       1  UNL1        0.0292
     42 H           3.0285    0.3832   -0.8736 H       1  UNL1        0.0292
     43 H           3.0284    0.3830    0.8737 H       1  UNL1        0.0292
     44 H           0.7309    5.1582   -0.9756 H       1  UNL1        0.0638
     45 H          -4.3454    3.5794    0.0002 H       1  UNL1        0.0646
     46 H          -5.6098   -0.4207   -0.0001 H       1  UNL1        0.0646
     47 H           2.2165    7.1588    1.9297 H       1  UNL1        0.2098
     48 H           0.7185    4.9487    1.8679 H       1  UNL1        0.2102
     49 H           3.2969   -0.9521   -0.0000 H       1  UNL1        0.0638
     50 H          -0.0811   -3.4396   -0.0004 H       1  UNL1        0.0638
     51 H           1.3550   -5.3897   -0.0004 H       1  UNL1        0.0618
     52 H           4.7328   -2.9023   -0.0000 H       1  UNL1        0.0618
     53 H           3.7618   -5.1209   -0.0002 H       1  UNL1        0.0618
@<TRIPOS>UNITY_ATOM_ATTR
12 1
charge -1
@<TRIPOS>BOND
     1     2     4   ar
     2     3     5   ar
     3     4     1   ar
     4     5     1   ar
     5     6     2    1
     6     7     9    1
     7     8     3    1
     8     9    14    1
     9    10     6    2
    10    11     1    1
    11    12     7   ar
    12    13     7   ar
    13    14    15    1
    14    15    20    1
    15    16     8   ar
    16    17     8   ar
    17    18     4    1
    18    19    21   ar
    19    10    20    1
    20    21    17   ar
    21    22    16   ar
    22    23    19    1
    23    14    24    1
    24    20    25    1
    25    26    11   ar
    26    27    11   ar
    27    28    27   ar
    28    29    26   ar
    29    30    29   ar
    30     2     3   ar
    31    28    30   ar
    32    22    19   ar
    33     5    31    1
    34     6    32    1
    35     9    33    1
    36     9    34    1
    37    10    35    1
    38    14    36    1
    39    15    37    1
    40    15    38    1
    41    16    39    1
    42    17    40    1
    43    18    41    1
    44    18    42    1
    45    18    43    1
    46    20    44    1
    47    21    45    1
    48    22    46    1
    49    24    47    1
    50    25    48    1
    51    26    49    1
    52    27    50    1
    53    28    51    1
    54    29    52    1
    55    30    53    1
@<TRIPOS>MOLECULE
BDB50215698
 88 91 0 0 0
SMALL
GASTEIGER

@<TRIPOS>ATOM
      1 C           0.6379   -1.1752   -0.0284 C.ar    1  UNL1        0.0201
      2 C          -0.7888   -1.1322   -0.0100 C.ar    1  UNL1        0.0113
      3 C          -1.1163    0.2565    0.0081 C.ar    1  UNL1        0.0280
      4 N           0.0203    0.9666    0.0000 N.ar    1  UNL1       -0.3367
      5 C           1.0885    0.1723   -0.0473 C.ar    1  UNL1        0.1132
      6 C           0.1601    2.4635    0.1979 C.3     1  UNL1        0.0293
      7 C          -0.7252    3.4544   -0.6243 C.3     1  UNL1       -0.0445
      8 C           0.3217    2.8828    1.6767 C.3     1  UNL1       -0.0445
      9 C          -1.8633   -2.4634   -0.0428 C.ar    1  UNL1       -0.0154
     10 C          -3.2228   -2.3896   -0.3229 C.ar    1  UNL1       -0.0512
     11 C          -4.0938   -3.4783   -0.2973 C.ar    1  UNL1       -0.0259
     12 C          -3.6131   -4.7490   -0.0336 C.ar    1  UNL1        0.1234
     13 C          -2.2635   -4.8898    0.2108 C.ar    1  UNL1       -0.0259
     14 C          -1.4551   -3.7630    0.2171 C.ar    1  UNL1       -0.0512
     15 C           1.5929   -2.4918   -0.0764 C.ar    1  UNL1       -0.0151
     16 C           2.9492   -2.4421   -0.3267 C.ar    1  UNL1       -0.0539
     17 C           3.7345   -3.5975   -0.3363 C.ar    1  UNL1       -0.0612
     18 C           3.2136   -4.8584   -0.1133 C.ar    1  UNL1       -0.0617
     19 C           1.8583   -4.9433    0.1134 C.ar    1  UNL1       -0.0612
     20 C           1.1136   -3.7755    0.1304 C.ar    1  UNL1       -0.0539
     21 C          -2.5319    1.0196    0.0164 C.3     1  UNL1       -0.0093
     22 C          -3.7266    0.1989    0.3637 C.3     1  UNL1       -0.0214
     23 C          -5.1236    0.7529    0.0720 C.3     1  UNL1        0.0579
     24 C          -6.0442   -0.4899    0.2012 C.3     1  UNL1       -0.0004
     25 O          -5.2173    1.2819   -1.2631 O.3     1  UNL1       -0.3917
     26 C          -7.5159   -0.1609    0.0260 C.3     1  UNL1        0.0626
     27 C          -8.3338   -1.4608    0.1056 C.3     1  UNL1        0.0130
     28 O          -7.7428    0.4606   -1.2404 O.3     1  UNL1       -0.3913
     29 C          -9.7818   -1.1060    0.0129 C.2     1  UNL1        0.0442
     30 O         -10.1496    0.1996   -0.0121 O.co2   1  UNL1       -0.5497
     31 O         -10.6422   -1.9932   -0.0034 O.co2   1  UNL1       -0.5497
     32 C           2.5651    0.8237   -0.1192 C.2     1  UNL1        0.2614
     33 O           2.6804    2.0089   -0.4623 O.2     1  UNL1       -0.2686
     34 N           3.7801    0.1775    0.2457 N.am    1  UNL1       -0.3060
     35 C           5.1307    0.7916   -0.0360 C.3     1  UNL1        0.0372
     36 F          -4.4230   -5.8193   -0.0316 F       1  UNL1       -0.2055
     37 C           6.2020   -0.3252   -0.0297 C.ar    1  UNL1       -0.0303
     38 C           5.7544   -1.6248   -0.0070 C.ar    1  UNL1       -0.0564
     39 C           6.6115   -2.7055    0.0034 C.ar    1  UNL1       -0.0493
     40 C           7.9783   -2.5211   -0.0045 C.ar    1  UNL1        0.0369
     41 C           8.4560   -1.2079   -0.0251 C.ar    1  UNL1       -0.0493
     42 C           7.5800   -0.1131   -0.0410 C.ar    1  UNL1       -0.0564
     43 C           8.9293   -3.7105    0.0060 C.2     1  UNL1        0.2461
     44 O          10.1401   -3.4709    0.0096 O.2     1  UNL1       -0.2700
     45 N           8.5306   -5.1296    0.0073 N.am    1  UNL1       -0.3036
     46 C           9.5670   -6.1197    0.0072 C.3     1  UNL1        0.0031
     47 C           7.1607   -5.6103    0.0040 C.3     1  UNL1        0.0031
     48 H           1.0932    2.6011   -0.3074 H       1  UNL1        0.0522
     49 H          -1.7240    3.4427   -0.2408 H       1  UNL1        0.0249
     50 H          -0.7342    3.1562   -1.6519 H       1  UNL1        0.0249
     51 H          -0.3236    4.4429   -0.5433 H       1  UNL1        0.0249
     52 H          -0.6078    2.7481    2.1892 H       1  UNL1        0.0249
     53 H           0.6103    3.9119    1.7261 H       1  UNL1        0.0249
     54 H           1.0745    2.2787    2.1385 H       1  UNL1        0.0249
     55 H          -3.6142   -1.4663   -0.5664 H       1  UNL1        0.0624
     56 H          -5.1003   -3.3360   -0.4756 H       1  UNL1        0.0646
     57 H          -1.8596   -5.8230    0.3870 H       1  UNL1        0.0646
     58 H          -0.4565   -3.9049    0.4356 H       1  UNL1        0.0624
     59 H           3.3941   -1.5294   -0.5112 H       1  UNL1        0.0624
     60 H           4.7463   -3.5058   -0.5175 H       1  UNL1        0.0618
     61 H           3.8135   -5.6981   -0.1166 H       1  UNL1        0.0618
     62 H           1.4065   -5.8582    0.2675 H       1  UNL1        0.0618
     63 H           0.1028   -3.8707    0.3152 H       1  UNL1        0.0624
     64 H          -2.6887    1.4248   -0.9614 H       1  UNL1        0.0329
     65 H          -2.4550    1.7515    0.7931 H       1  UNL1        0.0329
     66 H          -3.6383   -0.7237   -0.1710 H       1  UNL1        0.0294
     67 H          -3.6937    0.1408    1.4316 H       1  UNL1        0.0294
     68 H          -5.3802    1.5552    0.7319 H       1  UNL1        0.0594
     69 H          -5.9041   -0.9182    1.1717 H       1  UNL1        0.0315
     70 H          -5.7739   -1.1700   -0.5794 H       1  UNL1        0.0315
     71 H          -4.9924    0.5879   -1.9024 H       1  UNL1        0.2098
     72 H          -7.8160    0.5140    0.8002 H       1  UNL1        0.0598
     73 H          -8.1404   -1.9544    1.0350 H       1  UNL1        0.0350
     74 H          -8.0620   -2.1186   -0.6933 H       1  UNL1        0.0350
     75 H          -7.4738   -0.1436   -1.9499 H       1  UNL1        0.2098
     76 H           3.7385   -0.6971    0.6958 H       1  UNL1        0.1494
     77 H           5.3610    1.5141    0.7189 H       1  UNL1        0.0512
     78 H           5.1167    1.2743   -0.9908 H       1  UNL1        0.0512
     79 H           4.7372   -1.7987    0.0026 H       1  UNL1        0.0621
     80 H           6.2258   -3.6626    0.0172 H       1  UNL1        0.0625
     81 H           9.4743   -1.0405   -0.0287 H       1  UNL1        0.0625
     82 H           7.9547    0.8483   -0.0610 H       1  UNL1        0.0621
     83 H          10.5217   -5.6366    0.0098 H       1  UNL1        0.0428
     84 H           9.4780   -6.7291   -0.8678 H       1  UNL1        0.0428
     85 H           9.4750   -6.7325    0.8795 H       1  UNL1        0.0428
     86 H           6.4901   -4.7765    0.0044 H       1  UNL1        0.0428
     87 H           6.9896   -6.2060    0.8762 H       1  UNL1        0.0428
     88 H           6.9927   -6.2027   -0.8711 H       1  UNL1        0.0428
@<TRIPOS>UNITY_ATOM_ATTR
30 1
charge -1
@<TRIPOS>BOND
     1    10    11   ar
     2    22    23    1
     3     5     1   ar
     4    23    24    1
     5    11    12   ar
     6    23    25    1
     7     1     2   ar
     8    24    26    1
     9    12    13   ar
    10    26    27    1
    11     4     6    1
    12    26    28    1
    13    13    14   ar
    14    27    29    1
    15    14     9   ar
    16    29    30   ar
    17     2     9    1
    18    29    31   ar
    19     5    32    1
    20     6     7    1
    21    32    33    2
    22    15    16   ar
    23    32    34   am
    24    34    35    1
    25    16    17   ar
    26    12    36    1
    27     6     8    1
    28    35    37    1
    29    17    18   ar
    30    37    38   ar
    31     2     3   ar
    32    38    39   ar
    33    18    19   ar
    34    39    40   ar
    35     3     4   ar
    36    40    41   ar
    37    19    20   ar
    38    41    42   ar
    39    42    37   ar
    40    20    15   ar
    41    40    43    1
    42     1    15    1
    43    43    44    2
    44     9    10   ar
    45    43    45   am
    46     3    21    1
    47    45    46    1
    48     4     5   ar
    49    45    47    1
    50    21    22    1
    51     6    48    1
    52     7    49    1
    53     7    50    1
    54     7    51    1
    55     8    52    1
    56     8    53    1
    57     8    54    1
    58    10    55    1
    59    11    56    1
    60    13    57    1
    61    14    58    1
    62    16    59    1
    63    17    60    1
    64    18    61    1
    65    19    62    1
    66    20    63    1
    67    21    64    1
    68    21    65    1
    69    22    66    1
    70    22    67    1
    71    23    68    1
    72    24    69    1
    73    24    70    1
    74    25    71    1
    75    26    72    1
    76    27    73    1
    77    27    74    1
    78    28    75    1
    79    34    76    1
    80    35    77    1
    81    35    78    1
    82    38    79    1
    83    39    80    1
    84    41    81    1
    85    42    82    1
    86    46    83    1
    87    46    84    1
    88    46    85    1
    89    47    86    1
    90    47    87    1
    91    47    88    1
@<TRIPOS>MOLECULE
BDB50215694
 82 85 0 0 0
SMALL
GASTEIGER

@<TRIPOS>ATOM
      1 C           0.7245   -1.0678    0.0143 C.ar    1  UNL1        0.0201
      2 C          -0.6858   -1.1045   -0.0360 C.ar    1  UNL1        0.0113
      3 C          -1.1003    0.2625   -0.0332 C.ar    1  UNL1        0.0280
      4 N          -0.0141    1.0269    0.0590 N.ar    1  UNL1       -0.3367
      5 C           1.1032    0.3081    0.0527 C.ar    1  UNL1        0.1132
      6 C          -0.0579    2.4850    0.2721 C.3     1  UNL1        0.0293
      7 C          -0.3782    3.3768   -0.9566 C.3     1  UNL1       -0.0445
      8 C          -0.6306    2.9826    1.6279 C.3     1  UNL1       -0.0445
      9 C          -1.6758   -2.4488   -0.1008 C.ar    1  UNL1       -0.0154
     10 C          -3.0350   -2.4024   -0.3476 C.ar    1  UNL1       -0.0512
     11 C          -3.8812   -3.5098   -0.3047 C.ar    1  UNL1       -0.0259
     12 C          -3.3553   -4.7640   -0.0555 C.ar    1  UNL1        0.1234
     13 C          -1.9918   -4.8738    0.1505 C.ar    1  UNL1       -0.0259
     14 C          -1.1981   -3.7355    0.1466 C.ar    1  UNL1       -0.0512
     15 C           1.7980   -2.2865   -0.0047 C.ar    1  UNL1       -0.0151
     16 C           3.1576   -2.0781    0.0357 C.ar    1  UNL1       -0.0539
     17 C           4.1022   -3.1030    0.0283 C.ar    1  UNL1       -0.0612
     18 C           3.6874   -4.4218   -0.0088 C.ar    1  UNL1       -0.0617
     19 C           2.3271   -4.6792   -0.0497 C.ar    1  UNL1       -0.0612
     20 C           1.4226   -3.6306   -0.0556 C.ar    1  UNL1       -0.0539
     21 C          -2.5321    0.9703   -0.1287 C.3     1  UNL1       -0.0093
     22 C          -3.7105    0.1689    0.3278 C.3     1  UNL1       -0.0214
     23 C          -5.1041    0.7271    0.0428 C.3     1  UNL1        0.0579
     24 C          -6.0302   -0.5041    0.2055 C.3     1  UNL1       -0.0004
     25 O          -5.2074    1.2323   -1.3005 O.3     1  UNL1       -0.3917
     26 C          -7.5007   -0.1660    0.0332 C.3     1  UNL1        0.0626
     27 C          -8.3242   -1.4615    0.1242 C.3     1  UNL1        0.0130
     28 O          -7.7276    0.4467   -1.2378 O.3     1  UNL1       -0.3913
     29 C          -9.7709   -1.1054    0.0215 C.2     1  UNL1        0.0442
     30 O         -10.1374    0.2002   -0.0136 O.co2   1  UNL1       -0.5497
     31 O         -10.6315   -1.9921    0.0011 O.co2   1  UNL1       -0.5497
     32 C           2.5716    0.9407    0.0695 C.2     1  UNL1        0.2614
     33 O           3.5839    0.2639   -0.0035 O.2     1  UNL1       -0.2686
     34 N           2.8546    2.3122    0.1120 N.am    1  UNL1       -0.3060
     35 C           4.2350    2.7417    0.0433 C.3     1  UNL1        0.0372
     36 F          -4.1444   -5.8504   -0.0305 F       1  UNL1       -0.2055
     37 C           4.3361    4.2505    0.0202 C.ar    1  UNL1       -0.0296
     38 C           3.1881    5.0308    0.0180 C.ar    1  UNL1       -0.0450
     39 C           3.2686    6.4129    0.0041 C.ar    1  UNL1        0.0368
     40 C           4.5137    7.0295   -0.0086 C.ar    1  UNL1       -0.0496
     41 C           5.6686    6.2545   -0.0094 C.ar    1  UNL1       -0.0607
     42 C           5.5816    4.8665    0.0046 C.ar    1  UNL1       -0.0570
     43 C           2.0299    7.1891    0.0075 C.2     1  UNL1        0.2415
     44 O           0.9436    6.5983    0.0186 O.2     1  UNL1       -0.2704
     45 N           2.0581    8.5820    0.0012 N.am    1  UNL1       -0.3253
     46 H           0.9896    2.6656    0.3946 H       1  UNL1        0.0522
     47 H          -1.4173    3.2924   -1.1973 H       1  UNL1        0.0249
     48 H           0.2086    3.0569   -1.7922 H       1  UNL1        0.0249
     49 H          -0.1467    4.3961   -0.7276 H       1  UNL1        0.0249
     50 H          -1.6929    2.8544    1.6349 H       1  UNL1        0.0249
     51 H          -0.3955    4.0186    1.7557 H       1  UNL1        0.0249
     52 H          -0.1979    2.4175    2.4268 H       1  UNL1        0.0249
     53 H          -3.4514   -1.4869   -0.5791 H       1  UNL1        0.0624
     54 H          -4.8951   -3.3938   -0.4582 H       1  UNL1        0.0646
     55 H          -1.5656   -5.8006    0.3068 H       1  UNL1        0.0646
     56 H          -0.1905   -3.8483    0.3390 H       1  UNL1        0.0624
     57 H           3.4982   -1.1047    0.0738 H       1  UNL1        0.0624
     58 H           5.1092   -2.8782    0.0505 H       1  UNL1        0.0618
     59 H           4.3729   -5.1932   -0.0061 H       1  UNL1        0.0618
     60 H           1.9873   -5.6533   -0.0758 H       1  UNL1        0.0618
     61 H           0.4162   -3.8547   -0.1000 H       1  UNL1        0.0624
     62 H          -2.4946    1.8590    0.4660 H       1  UNL1        0.0329
     63 H          -2.6937    1.1374   -1.1731 H       1  UNL1        0.0329
     64 H          -3.6247    0.0502    1.3877 H       1  UNL1        0.0294
     65 H          -3.6598   -0.7347   -0.2430 H       1  UNL1        0.0294
     66 H          -5.3486    1.5430    0.6904 H       1  UNL1        0.0594
     67 H          -5.8864   -0.9123    1.1841 H       1  UNL1        0.0315
     68 H          -5.7703   -1.2042   -0.5608 H       1  UNL1        0.0315
     69 H          -4.9936    0.5252   -1.9292 H       1  UNL1        0.2098
     70 H          -7.7948    0.5170    0.8025 H       1  UNL1        0.0598
     71 H          -8.1361   -1.9449    1.0601 H       1  UNL1        0.0350
     72 H          -8.0515   -2.1282   -0.6670 H       1  UNL1        0.0350
     73 H          -7.4640   -0.1648   -1.9432 H       1  UNL1        0.2098
     74 H           2.1276    2.9718    0.1872 H       1  UNL1        0.1494
     75 H           4.6794    2.3482   -0.8470 H       1  UNL1        0.0512
     76 H           4.7466    2.3804    0.9109 H       1  UNL1        0.0512
     77 H           2.2624    4.5747    0.0268 H       1  UNL1        0.0628
     78 H           4.5813    8.0592   -0.0174 H       1  UNL1        0.0625
     79 H           6.5939    6.7113   -0.0204 H       1  UNL1        0.0618
     80 H           6.4408    4.2949    0.0034 H       1  UNL1        0.0621
     81 H           2.9205    9.0569   -0.0076 H       1  UNL1        0.1453
     82 H           1.2157    9.0914    0.0056 H       1  UNL1        0.1453
@<TRIPOS>UNITY_ATOM_ATTR
30 1
charge -1
@<TRIPOS>BOND
     1     4     5   ar
     2    21    22    1
     3    10    11   ar
     4    22    23    1
     5     5     1   ar
     6    23    24    1
     7    11    12   ar
     8    23    25    1
     9     1     2   ar
    10    24    26    1
    11    12    13   ar
    12    26    27    1
    13     4     6    1
    14    26    28    1
    15    13    14   ar
    16    27    29    1
    17    14     9   ar
    18    29    30   ar
    19     2     9    1
    20    29    31   ar
    21     5    32    1
    22     6     7    1
    23    32    33    2
    24    15    16   ar
    25    32    34   am
    26    34    35    1
    27    16    17   ar
    28    12    36    1
    29     6     8    1
    30    35    37    1
    31    17    18   ar
    32    37    38   ar
    33     2     3   ar
    34    38    39   ar
    35    18    19   ar
    36    39    40   ar
    37     3     4   ar
    38    40    41   ar
    39    19    20   ar
    40    41    42   ar
    41    42    37   ar
    42    20    15   ar
    43    39    43    1
    44     1    15    1
    45    43    44    2
    46     9    10   ar
    47    43    45   am
    48     3    21    1
    49     6    46    1
    50     7    47    1
    51     7    48    1
    52     7    49    1
    53     8    50    1
    54     8    51    1
    55     8    52    1
    56    10    53    1
    57    11    54    1
    58    13    55    1
    59    14    56    1
    60    16    57    1
    61    17    58    1
    62    18    59    1
    63    19    60    1
    64    20    61    1
    65    21    62    1
    66    21    63    1
    67    22    64    1
    68    22    65    1
    69    23    66    1
    70    24    67    1
    71    24    68    1
    72    25    69    1
    73    26    70    1
    74    27    71    1
    75    27    72    1
    76    28    73    1
    77    34    74    1
    78    35    75    1
    79    35    76    1
    80    38    77    1
    81    40    78    1
    82    41    79    1
    83    42    80    1
    84    45    81    1
    85    45    82    1
@<TRIPOS>MOLECULE
BDB50215683
 85 88 0 0 0
SMALL
GASTEIGER

@<TRIPOS>ATOM
      1 C           0.7099   -1.1334   -0.0587 C.ar    1  UNL1        0.0201
      2 C          -0.7192   -1.1333   -0.0327 C.ar    1  UNL1        0.0113
      3 C          -1.0997    0.2434   -0.0021 C.ar    1  UNL1        0.0280
      4 N           0.0065    0.9931   -0.0093 N.ar    1  UNL1       -0.3366
      5 C           1.0923    0.2320   -0.0606 C.ar    1  UNL1        0.1135
      6 C           0.1046    2.4879    0.2037 C.3     1  UNL1        0.0293
      7 C          -0.7918    3.4662   -0.6188 C.3     1  UNL1       -0.0445
      8 C           0.2723    2.9042    1.6835 C.3     1  UNL1       -0.0445
      9 C          -1.7303   -2.4789   -0.0638 C.ar    1  UNL1       -0.0154
     10 C          -3.1019   -2.4212   -0.2751 C.ar    1  UNL1       -0.0512
     11 C          -3.9539   -3.5204   -0.2437 C.ar    1  UNL1       -0.0259
     12 C          -3.4363   -4.7856   -0.0366 C.ar    1  UNL1        0.1234
     13 C          -2.0710   -4.9094    0.1344 C.ar    1  UNL1       -0.0259
     14 C          -1.2720   -3.7728    0.1280 C.ar    1  UNL1       -0.0512
     15 C           1.7468   -2.4426   -0.1086 C.ar    1  UNL1       -0.0151
     16 C           3.0951   -2.3522   -0.4479 C.ar    1  UNL1       -0.0539
     17 C           3.9548   -3.4514   -0.4315 C.ar    1  UNL1       -0.0612
     18 C           3.4884   -4.7192   -0.1174 C.ar    1  UNL1       -0.0617
     19 C           2.1471   -4.8571    0.1842 C.ar    1  UNL1       -0.0612
     20 C           1.3339   -3.7318    0.1962 C.ar    1  UNL1       -0.0539
     21 C          -2.5328    0.9780    0.0179 C.3     1  UNL1       -0.0093
     22 C          -3.7293    0.1514    0.3403 C.3     1  UNL1       -0.0214
     23 C          -5.1190    0.7209    0.0675 C.3     1  UNL1        0.0579
     24 C          -6.0455   -0.5157    0.1870 C.3     1  UNL1       -0.0004
     25 O          -5.2143    1.2697   -1.2587 O.3     1  UNL1       -0.3917
     26 C          -7.5143   -0.1726    0.0227 C.3     1  UNL1        0.0626
     27 C          -8.3399   -1.4672    0.0985 C.3     1  UNL1        0.0130
     28 O          -7.7414    0.4583   -1.2387 O.3     1  UNL1       -0.3913
     29 C          -9.7860   -1.1054    0.0122 C.2     1  UNL1        0.0442
     30 O         -10.1482    0.2017   -0.0102 O.co2   1  UNL1       -0.5497
     31 O         -10.6500   -1.9890   -0.0030 O.co2   1  UNL1       -0.5497
     32 C           2.5020    0.8987   -0.0930 C.2     1  UNL1        0.2654
     33 O           2.6365    2.0791   -0.4457 O.2     1  UNL1       -0.2682
     34 N           3.6039    0.2121    0.3190 N.am    1  UNL1       -0.2803
     35 C           4.9350    0.6018    0.1302 C.ar    1  UNL1        0.0338
     36 C           5.3516    1.9097   -0.0989 C.ar    1  UNL1       -0.0398
     37 C           6.7163    2.1879   -0.1726 C.ar    1  UNL1       -0.0479
     38 C           7.6627    1.1698   -0.0444 C.ar    1  UNL1        0.0370
     39 C           7.2268   -0.1344    0.1274 C.ar    1  UNL1       -0.0479
     40 C           5.8756   -0.4110    0.2287 C.ar    1  UNL1       -0.0398
     41 F          -4.2325   -5.8651   -0.0194 F       1  UNL1       -0.2055
     42 C           9.1518    1.3659   -0.0502 C.2     1  UNL1        0.2461
     43 O           9.8440    0.3419   -0.0056 O.2     1  UNL1       -0.2700
     44 N           9.8460    2.6195   -0.0396 N.am    1  UNL1       -0.3036
     45 C          11.2794    2.5881   -0.0109 C.3     1  UNL1        0.0031
     46 C           9.1939    3.9015   -0.0080 C.3     1  UNL1        0.0031
     47 H           1.0333    2.6490   -0.3027 H       1  UNL1        0.0522
     48 H          -1.7922    3.4370   -0.2402 H       1  UNL1        0.0249
     49 H          -0.7909    3.1714   -1.6474 H       1  UNL1        0.0249
     50 H          -0.4067    4.4608   -0.5325 H       1  UNL1        0.0249
     51 H          -0.6494    2.7488    2.2044 H       1  UNL1        0.0249
     52 H           0.5409    3.9387    1.7348 H       1  UNL1        0.0249
     53 H           1.0414    2.3132    2.1353 H       1  UNL1        0.0249
     54 H          -3.5185   -1.4972   -0.4692 H       1  UNL1        0.0624
     55 H          -4.9695   -3.3918   -0.3746 H       1  UNL1        0.0646
     56 H          -1.6470   -5.8410    0.2662 H       1  UNL1        0.0646
     57 H          -0.2591   -3.9019    0.2776 H       1  UNL1        0.0624
     58 H           3.4744   -1.4328   -0.7232 H       1  UNL1        0.0624
     59 H           4.9532   -3.3188   -0.6566 H       1  UNL1        0.0618
     60 H           4.1227   -5.5332   -0.1092 H       1  UNL1        0.0618
     61 H           1.7538   -5.7869    0.3983 H       1  UNL1        0.0618
     62 H           0.3431   -3.8648    0.4523 H       1  UNL1        0.0624
     63 H          -2.4803    1.7616    0.7446 H       1  UNL1        0.0329
     64 H          -2.6879    1.2966   -0.9917 H       1  UNL1        0.0329
     65 H          -3.6824   -0.0734    1.3854 H       1  UNL1        0.0294
     66 H          -3.6561   -0.6781   -0.3316 H       1  UNL1        0.0294
     67 H          -5.3672    1.5164    0.7387 H       1  UNL1        0.0594
     68 H          -5.9039   -0.9562    1.1518 H       1  UNL1        0.0315
     69 H          -5.7836   -1.1899   -0.6016 H       1  UNL1        0.0315
     70 H          -4.9971    0.5835   -1.9090 H       1  UNL1        0.2098
     71 H          -7.8064    0.5003    0.8017 H       1  UNL1        0.0598
     72 H          -8.1463   -1.9663    1.0249 H       1  UNL1        0.0350
     73 H          -8.0746   -2.1218   -0.7052 H       1  UNL1        0.0350
     74 H          -7.4797   -0.1435   -1.9530 H       1  UNL1        0.2098
     75 H           3.4499   -0.6367    0.7934 H       1  UNL1        0.1552
     76 H           4.6583    2.6655   -0.2130 H       1  UNL1        0.0636
     77 H           7.0306    3.1592   -0.3239 H       1  UNL1        0.0626
     78 H           7.9137   -0.9028    0.1800 H       1  UNL1        0.0626
     79 H           5.5641   -1.3832    0.3794 H       1  UNL1        0.0636
     80 H          11.6145    1.5724   -0.0397 H       1  UNL1        0.0428
     81 H          11.6284    3.0535    0.8871 H       1  UNL1        0.0428
     82 H          11.6647    3.1150   -0.8587 H       1  UNL1        0.0428
     83 H           8.1333    3.7629   -0.0349 H       1  UNL1        0.0428
     84 H           9.4999    4.4783   -0.8557 H       1  UNL1        0.0428
     85 H           9.4636    4.4168    0.8901 H       1  UNL1        0.0428
@<TRIPOS>UNITY_ATOM_ATTR
30 1
charge -1
@<TRIPOS>BOND
     1    21    22    1
     2    10    11   ar
     3    22    23    1
     4     5     1   ar
     5    23    24    1
     6    11    12   ar
     7    23    25    1
     8     1     2   ar
     9    24    26    1
    10    12    13   ar
    11    26    27    1
    12     4     6    1
    13    26    28    1
    14    13    14   ar
    15    27    29    1
    16    14     9   ar
    17    29    30   ar
    18     2     9    1
    19    29    31   ar
    20     5    32    1
    21     6     7    1
    22    32    33    2
    23    15    16   ar
    24    32    34   am
    25    34    35    1
    26    16    17   ar
    27    35    36   ar
    28     6     8    1
    29    36    37   ar
    30    17    18   ar
    31    37    38   ar
    32     2     3   ar
    33    38    39   ar
    34    18    19   ar
    35    39    40   ar
    36    40    35   ar
    37     3     4   ar
    38    12    41    1
    39    19    20   ar
    40    38    42    1
    41    20    15   ar
    42    42    43    2
    43     1    15    1
    44    42    44   am
    45     9    10   ar
    46    44    45    1
    47     3    21    1
    48    44    46    1
    49     4     5   ar
    50     6    47    1
    51     7    48    1
    52     7    49    1
    53     7    50    1
    54     8    51    1
    55     8    52    1
    56     8    53    1
    57    10    54    1
    58    11    55    1
    59    13    56    1
    60    14    57    1
    61    16    58    1
    62    17    59    1
    63    18    60    1
    64    19    61    1
    65    20    62    1
    66    21    63    1
    67    21    64    1
    68    22    65    1
    69    22    66    1
    70    23    67    1
    71    24    68    1
    72    24    69    1
    73    25    70    1
    74    26    71    1
    75    27    72    1
    76    27    73    1
    77    28    74    1
    78    34    75    1
    79    36    76    1
    80    37    77    1
    81    39    78    1
    82    40    79    1
    83    45    80    1
    84    45    81    1
    85    45    82    1
    86    46    83    1
    87    46    84    1
    88    46    85    1
@<TRIPOS>MOLECULE
BDB50215691
 77 80 0 0 0
SMALL
GASTEIGER

@<TRIPOS>ATOM
      1 C           0.7312   -1.0504    0.0125 C.ar    1  UNL1        0.0201
      2 C          -0.6939   -1.0842   -0.0391 C.ar    1  UNL1        0.0113
      3 C          -1.0925    0.2813   -0.0345 C.ar    1  UNL1        0.0280
      4 N          -0.0055    1.0459    0.0613 N.ar    1  UNL1       -0.3367
      5 C           1.1073    0.3133    0.0524 C.ar    1  UNL1        0.1132
      6 C          -0.0300    2.4987    0.2940 C.3     1  UNL1        0.0293
      7 C          -0.3433    3.4048   -0.9257 C.3     1  UNL1       -0.0445
      8 C          -0.6241    2.9801    1.6463 C.3     1  UNL1       -0.0445
      9 C          -1.6784   -2.4332   -0.1039 C.ar    1  UNL1       -0.0154
     10 C          -1.2065   -3.7156    0.1370 C.ar    1  UNL1       -0.0512
     11 C          -1.9976   -4.8582    0.1426 C.ar    1  UNL1       -0.0259
     12 C          -3.3612   -4.7488   -0.0576 C.ar    1  UNL1        0.1234
     13 C          -3.8880   -3.4927   -0.3007 C.ar    1  UNL1       -0.0259
     14 C          -3.0467   -2.3849   -0.3451 C.ar    1  UNL1       -0.0512
     15 C           1.7876   -2.2860   -0.0065 C.ar    1  UNL1       -0.0151
     16 C           3.1587   -2.0798    0.0312 C.ar    1  UNL1       -0.0539
     17 C           4.0925   -3.1091    0.0255 C.ar    1  UNL1       -0.0612
     18 C           3.6718   -4.4276   -0.0066 C.ar    1  UNL1       -0.0617
     19 C           2.3117   -4.6785   -0.0445 C.ar    1  UNL1       -0.0612
     20 C           1.4135   -3.6195   -0.0520 C.ar    1  UNL1       -0.0539
     21 C          -2.5262    0.9947   -0.1312 C.3     1  UNL1       -0.0093
     22 C          -3.7042    0.1913    0.3284 C.3     1  UNL1       -0.0214
     23 C          -5.1019    0.7426    0.0410 C.3     1  UNL1        0.0579
     24 C          -6.0259   -0.4908    0.2101 C.3     1  UNL1       -0.0004
     25 O          -5.2077    1.2393   -1.3050 O.3     1  UNL1       -0.3917
     26 C          -7.4989   -0.1581    0.0347 C.3     1  UNL1        0.0626
     27 C          -8.3191   -1.4560    0.1300 C.3     1  UNL1        0.0130
     28 O          -7.7267    0.4483   -1.2392 O.3     1  UNL1       -0.3913
     29 C          -9.7673   -1.1053    0.0231 C.2     1  UNL1        0.0442
     30 O         -10.1388    0.1988   -0.0156 O.co2   1  UNL1       -0.5497
     31 O         -10.6247   -1.9953    0.0017 O.co2   1  UNL1       -0.5497
     32 C           2.5780    0.9462    0.0721 C.2     1  UNL1        0.2615
     33 O           3.5844    0.2596    0.0028 O.2     1  UNL1       -0.2686
     34 N           2.8810    2.3191    0.1099 N.am    1  UNL1       -0.3040
     35 C           4.2531    2.7195    0.0477 C.3     1  UNL1        0.0607
     36 F          -4.1488   -5.8365   -0.0326 F       1  UNL1       -0.2055
     37 C           4.3025    4.2106    0.0215 C.ar    1  UNL1        0.0956
     38 N           3.2164    4.9753    0.0208 N.ar    1  UNL1       -0.2476
     39 C           3.5124    6.2728    0.0011 C.ar    1  UNL1        0.0457
     40 C           4.8755    6.5573   -0.0141 C.ar    1  UNL1       -0.0016
     41 S           5.7202    5.1073   -0.0044 S.2     1  UNL1       -0.0787
     42 C           2.4567    7.3370   -0.0009 C.3     1  UNL1       -0.0218
     43 H           1.0172    2.6709    0.4302 H       1  UNL1        0.0522
     44 H          -1.3814    3.3247   -1.1722 H       1  UNL1        0.0249
     45 H           0.2470    3.0936   -1.7621 H       1  UNL1        0.0249
     46 H          -0.1115    4.4210   -0.6839 H       1  UNL1        0.0249
     47 H          -1.6868    2.8561    1.6333 H       1  UNL1        0.0249
     48 H          -0.3873    4.0133    1.7922 H       1  UNL1        0.0249
     49 H          -0.2073    2.4025    2.4448 H       1  UNL1        0.0249
     50 H          -0.1981   -3.8288    0.3251 H       1  UNL1        0.0624
     51 H          -1.5690   -5.7844    0.2956 H       1  UNL1        0.0646
     52 H          -4.9028   -3.3775   -0.4488 H       1  UNL1        0.0646
     53 H          -3.4653   -1.4692   -0.5715 H       1  UNL1        0.0624
     54 H           3.5046   -1.1081    0.0654 H       1  UNL1        0.0624
     55 H           5.1008   -2.8902    0.0452 H       1  UNL1        0.0618
     56 H           4.3539   -5.2020   -0.0024 H       1  UNL1        0.0618
     57 H           1.9655   -5.6504   -0.0671 H       1  UNL1        0.0618
     58 H           0.4060   -3.8390   -0.0940 H       1  UNL1        0.0624
     59 H          -2.6908    1.2564   -1.1556 H       1  UNL1        0.0329
     60 H          -2.4736    1.8285    0.5373 H       1  UNL1        0.0329
     61 H          -3.6183    0.0776    1.3889 H       1  UNL1        0.0294
     62 H          -3.6503   -0.7136   -0.2400 H       1  UNL1        0.0294
     63 H          -5.3482    1.5605    0.6854 H       1  UNL1        0.0594
     64 H          -5.8817   -0.8929    1.1911 H       1  UNL1        0.0315
     65 H          -5.7636   -1.1941   -0.5525 H       1  UNL1        0.0315
     66 H          -4.9922    0.5291   -1.9296 H       1  UNL1        0.2098
     67 H          -7.7955    0.5270    0.8012 H       1  UNL1        0.0598
     68 H          -8.1311   -1.9346    1.0684 H       1  UNL1        0.0350
     69 H          -8.0429   -2.1250   -0.6580 H       1  UNL1        0.0350
     70 H          -7.4607   -0.1655   -1.9417 H       1  UNL1        0.2098
     71 H           2.1641    2.9904    0.1777 H       1  UNL1        0.1495
     72 H           4.7054    2.3264   -0.8388 H       1  UNL1        0.0532
     73 H           4.7859    2.3468    0.8974 H       1  UNL1        0.0532
     74 H           5.2951    7.5000   -0.0288 H       1  UNL1        0.0712
     75 H           1.4894    6.8798    0.0126 H       1  UNL1        0.0293
     76 H           2.5558    7.9360   -0.8819 H       1  UNL1        0.0293
     77 H           2.5714    7.9548    0.8652 H       1  UNL1        0.0293
@<TRIPOS>UNITY_ATOM_ATTR
30 1
charge -1
@<TRIPOS>BOND
     1     1    15    1
     2     9    10   ar
     3     3    21    1
     4     4     5   ar
     5    21    22    1
     6    10    11   ar
     7    22    23    1
     8     5     1   ar
     9    23    24    1
    10    11    12   ar
    11    23    25    1
    12     1     2   ar
    13    24    26    1
    14    12    13   ar
    15    26    27    1
    16     4     6    1
    17    26    28    1
    18    13    14   ar
    19    27    29    1
    20    14     9   ar
    21    29    30   ar
    22     2     9    1
    23    29    31   ar
    24     5    32    1
    25     6     7    1
    26    32    33    2
    27    15    16   ar
    28    32    34   am
    29    34    35    1
    30    16    17   ar
    31    12    36    1
    32     6     8    1
    33    35    37    1
    34    37    38   ar
    35    17    18   ar
    36     2     3   ar
    37    18    19   ar
    38     3     4   ar
    39    38    39   ar
    40    39    40   ar
    41    40    41   ar
    42    41    37   ar
    43    19    20   ar
    44    39    42    1
    45    20    15   ar
    46     6    43    1
    47     7    44    1
    48     7    45    1
    49     7    46    1
    50     8    47    1
    51     8    48    1
    52     8    49    1
    53    10    50    1
    54    11    51    1
    55    13    52    1
    56    14    53    1
    57    16    54    1
    58    17    55    1
    59    18    56    1
    60    19    57    1
    61    20    58    1
    62    21    59    1
    63    21    60    1
    64    22    61    1
    65    22    62    1
    66    23    63    1
    67    24    64    1
    68    24    65    1
    69    25    66    1
    70    26    67    1
    71    27    68    1
    72    27    69    1
    73    28    70    1
    74    34    71    1
    75    35    72    1
    76    35    73    1
    77    40    74    1
    78    42    75    1
    79    42    76    1
    80    42    77    1
@<TRIPOS>MOLECULE
BDB50215706
 82 85 0 0 0
SMALL
GASTEIGER

@<TRIPOS>ATOM
      1 C           0.7364   -1.0764    0.0237 C.ar    1  UNL1        0.0201
      2 C          -0.6866   -1.1286   -0.0255 C.ar    1  UNL1        0.0113
      3 C          -1.1043    0.2306   -0.0253 C.ar    1  UNL1        0.0280
      4 N          -0.0281    1.0073    0.0557 N.ar    1  UNL1       -0.3367
      5 C           1.0949    0.2938    0.0567 C.ar    1  UNL1        0.1132
      6 C          -0.0789    2.4588    0.1937 C.3     1  UNL1        0.0293
      7 C          -0.4081    3.2820   -1.0773 C.3     1  UNL1       -0.0445
      8 C          -0.6132    3.0267    1.5380 C.3     1  UNL1       -0.0445
      9 C          -1.6565   -2.4777   -0.0872 C.ar    1  UNL1       -0.0154
     10 C          -3.0212   -2.4278   -0.3386 C.ar    1  UNL1       -0.0512
     11 C          -3.8642   -3.5339   -0.3019 C.ar    1  UNL1       -0.0259
     12 C          -3.3386   -4.7892   -0.0550 C.ar    1  UNL1        0.1234
     13 C          -1.9758   -4.9001    0.1553 C.ar    1  UNL1       -0.0259
     14 C          -1.1811   -3.7596    0.1562 C.ar    1  UNL1       -0.0512
     15 C           1.8063   -2.2937    0.0048 C.ar    1  UNL1       -0.0151
     16 C           3.1732   -2.0677    0.0485 C.ar    1  UNL1       -0.0539
     17 C           4.1203   -3.0855    0.0363 C.ar    1  UNL1       -0.0612
     18 C           3.7160   -4.4088   -0.0093 C.ar    1  UNL1       -0.0617
     19 C           2.3590   -4.6780   -0.0523 C.ar    1  UNL1       -0.0612
     20 C           1.4459   -3.6322   -0.0528 C.ar    1  UNL1       -0.0539
     21 C          -2.5402    0.9356   -0.1175 C.3     1  UNL1       -0.0093
     22 C          -3.7213    0.1386    0.3346 C.3     1  UNL1       -0.0214
     23 C          -5.1074    0.7121    0.0490 C.3     1  UNL1        0.0579
     24 C          -6.0418   -0.5106    0.2079 C.3     1  UNL1       -0.0004
     25 O          -5.2034    1.2223   -1.2934 O.3     1  UNL1       -0.3917
     26 C          -7.5088   -0.1647    0.0330 C.3     1  UNL1        0.0626
     27 C          -8.3339   -1.4586    0.1241 C.3     1  UNL1        0.0130
     28 O          -7.7308    0.4480   -1.2390 O.3     1  UNL1       -0.3913
     29 C          -9.7795   -1.1035    0.0203 C.2     1  UNL1        0.0442
     30 O         -10.1469    0.2016   -0.0157 O.co2   1  UNL1       -0.5497
     31 O         -10.6392   -1.9912    0.0000 O.co2   1  UNL1       -0.5497
     32 C           2.5523    0.9545    0.0697 C.2     1  UNL1        0.2614
     33 O           3.5702    0.2864   -0.0280 O.2     1  UNL1       -0.2686
     34 N           2.8240    2.3422    0.1357 N.am    1  UNL1       -0.3060
     35 C           4.1928    2.7768    0.0459 C.3     1  UNL1        0.0373
     36 F          -4.1284   -5.8746   -0.0360 F       1  UNL1       -0.2055
     37 C           4.3150    4.2875    0.0233 C.ar    1  UNL1       -0.0269
     38 C           3.1899    5.1061    0.0403 C.ar    1  UNL1       -0.0153
     39 C           3.3259    6.4893    0.0229 C.ar    1  UNL1        0.1204
     40 C           4.5932    7.0568   -0.0129 C.ar    1  UNL1       -0.0199
     41 C           5.7192    6.2433   -0.0318 C.ar    1  UNL1       -0.0580
     42 C           5.5797    4.8611   -0.0140 C.ar    1  UNL1       -0.0569
     43 O           2.1986    7.3180    0.0439 O.3     1  UNL1       -0.4951
     44 C           1.0000    6.5391    0.0848 C.3     1  UNL1        0.0788
     45 H           0.9680    2.6561    0.2936 H       1  UNL1        0.0522
     46 H          -1.4478    3.1804   -1.3086 H       1  UNL1        0.0249
     47 H           0.1767    2.9210   -1.8974 H       1  UNL1        0.0249
     48 H          -0.1805    4.3129   -0.9034 H       1  UNL1        0.0249
     49 H          -1.6743    2.8970    1.5834 H       1  UNL1        0.0249
     50 H          -0.3781    4.0685    1.6037 H       1  UNL1        0.0249
     51 H          -0.1550    2.5057    2.3525 H       1  UNL1        0.0249
     52 H          -3.4368   -1.5113   -0.5674 H       1  UNL1        0.0624
     53 H          -4.8777   -3.4182   -0.4583 H       1  UNL1        0.0646
     54 H          -1.5502   -5.8273    0.3111 H       1  UNL1        0.0646
     55 H          -0.1738   -3.8727    0.3501 H       1  UNL1        0.0624
     56 H           3.5057   -1.0917    0.0924 H       1  UNL1        0.0624
     57 H           5.1258   -2.8543    0.0613 H       1  UNL1        0.0618
     58 H           4.4081   -5.1743   -0.0112 H       1  UNL1        0.0618
     59 H           2.0265   -5.6545   -0.0839 H       1  UNL1        0.0618
     60 H           0.4413   -3.8638   -0.0987 H       1  UNL1        0.0624
     61 H          -2.7035    1.2013   -1.1410 H       1  UNL1        0.0329
     62 H          -2.4872    1.7607    0.5616 H       1  UNL1        0.0329
     63 H          -3.6377    0.0138    1.3940 H       1  UNL1        0.0294
     64 H          -3.6762   -0.7651   -0.2365 H       1  UNL1        0.0294
     65 H          -5.3462    1.5296    0.6967 H       1  UNL1        0.0594
     66 H          -5.9028   -0.9206    1.1864 H       1  UNL1        0.0315
     67 H          -5.7851   -1.2105   -0.5597 H       1  UNL1        0.0315
     68 H          -4.9947    0.5152   -1.9237 H       1  UNL1        0.2098
     69 H          -7.8031    0.5217    0.7992 H       1  UNL1        0.0598
     70 H          -8.1467   -1.9414    1.0604 H       1  UNL1        0.0350
     71 H          -8.0612   -2.1251   -0.6673 H       1  UNL1        0.0350
     72 H          -7.4677   -0.1648   -1.9434 H       1  UNL1        0.2098
     73 H           2.0939    2.9943    0.2405 H       1  UNL1        0.1494
     74 H           4.6208    2.3832   -0.8523 H       1  UNL1        0.0512
     75 H           4.7080    2.4191    0.9128 H       1  UNL1        0.0512
     76 H           2.2487    4.6836    0.0660 H       1  UNL1        0.0657
     77 H           4.6984    8.0833   -0.0255 H       1  UNL1        0.0654
     78 H           6.6602    6.6661   -0.0591 H       1  UNL1        0.0619
     79 H           6.4177    4.2590   -0.0285 H       1  UNL1        0.0621
     80 H           0.1515    7.1908    0.1003 H       1  UNL1        0.0660
     81 H           0.9993    5.9316    0.9656 H       1  UNL1        0.0660
     82 H           0.9524    5.9121   -0.7809 H       1  UNL1        0.0660
@<TRIPOS>UNITY_ATOM_ATTR
30 1
charge -1
@<TRIPOS>BOND
     1     3    21    1
     2     4     5   ar
     3    21    22    1
     4    10    11   ar
     5    22    23    1
     6     5     1   ar
     7    23    24    1
     8    11    12   ar
     9    23    25    1
    10     1     2   ar
    11    24    26    1
    12    12    13   ar
    13    26    27    1
    14     4     6    1
    15    26    28    1
    16    13    14   ar
    17    27    29    1
    18    14     9   ar
    19    29    30   ar
    20     2     9    1
    21    29    31   ar
    22     5    32    1
    23     6     7    1
    24    32    33    2
    25    15    16   ar
    26    32    34   am
    27    34    35    1
    28    16    17   ar
    29    12    36    1
    30     6     8    1
    31    35    37    1
    32    17    18   ar
    33    37    38   ar
    34     2     3   ar
    35    38    39   ar
    36    18    19   ar
    37    39    40   ar
    38     3     4   ar
    39    40    41   ar
    40    19    20   ar
    41    41    42   ar
    42    42    37   ar
    43    20    15   ar
    44    39    43    1
    45     1    15    1
    46    43    44    1
    47     9    10   ar
    48     6    45    1
    49     7    46    1
    50     7    47    1
    51     7    48    1
    52     8    49    1
    53     8    50    1
    54     8    51    1
    55    10    52    1
    56    11    53    1
    57    13    54    1
    58    14    55    1
    59    16    56    1
    60    17    57    1
    61    18    58    1
    62    19    59    1
    63    20    60    1
    64    21    61    1
    65    21    62    1
    66    22    63    1
    67    22    64    1
    68    23    65    1
    69    24    66    1
    70    24    67    1
    71    25    68    1
    72    26    69    1
    73    27    70    1
    74    27    71    1
    75    28    72    1
    76    34    73    1
    77    35    74    1
    78    35    75    1
    79    38    76    1
    80    40    77    1
    81    41    78    1
    82    42    79    1
    83    44    80    1
    84    44    81    1
    85    44    82    1
@<TRIPOS>MOLECULE
BDB50215666
 75 78 0 0 0
SMALL
GASTEIGER

@<TRIPOS>ATOM
      1 C           0.7184   -1.1072   -0.0610 C.ar    1  UNL1        0.0201
      2 C          -0.7108   -1.1117   -0.0374 C.ar    1  UNL1        0.0113
      3 C          -1.0914    0.2648   -0.0061 C.ar    1  UNL1        0.0280
      4 N           0.0162    1.0154   -0.0114 N.ar    1  UNL1       -0.3366
      5 C           1.1037    0.2553   -0.0583 C.ar    1  UNL1        0.1135
      6 C           2.5237    0.9142   -0.0796 C.2     1  UNL1        0.2654
      7 O           2.6636    2.0903   -0.4461 O.2     1  UNL1       -0.2682
      8 N           3.6367    0.2200    0.3576 N.am    1  UNL1       -0.2803
      9 C           4.9815    0.6059    0.1529 C.ar    1  UNL1        0.0337
     10 C           5.3844    1.9101   -0.1186 C.ar    1  UNL1       -0.0405
     11 C           6.7409    2.1951   -0.2569 C.ar    1  UNL1       -0.0600
     12 C           7.6901    1.1842   -0.1449 C.ar    1  UNL1       -0.0616
     13 C           7.2854   -0.1199    0.1043 C.ar    1  UNL1       -0.0600
     14 C           5.9356   -0.3984    0.2615 C.ar    1  UNL1       -0.0405
     15 C           1.7512   -2.4010   -0.1064 C.ar    1  UNL1       -0.0149
     16 C          -1.7239   -2.4647   -0.0715 C.ar    1  UNL1       -0.0154
     17 C           1.3384   -3.6773    0.2431 C.ar    1  UNL1       -0.0512
     18 C           2.1439   -4.8058    0.2406 C.ar    1  UNL1       -0.0259
     19 C           3.4762   -4.6780   -0.0950 C.ar    1  UNL1        0.1234
     20 C           3.9476   -3.4217   -0.4547 C.ar    1  UNL1       -0.0259
     21 C           3.0923   -2.3166   -0.4798 C.ar    1  UNL1       -0.0512
     22 C          -1.2636   -3.7611    0.1034 C.ar    1  UNL1       -0.0512
     23 C          -2.0624   -4.8982    0.1127 C.ar    1  UNL1       -0.0259
     24 C          -3.4298   -4.7745   -0.0416 C.ar    1  UNL1        0.1234
     25 C          -3.9494   -3.5081   -0.2354 C.ar    1  UNL1       -0.0259
     26 C          -3.0980   -2.4082   -0.2675 C.ar    1  UNL1       -0.0512
     27 F           4.2869   -5.7533   -0.0564 F       1  UNL1       -0.2055
     28 F          -4.2260   -5.8550   -0.0216 F       1  UNL1       -0.2055
     29 C          -2.5290    0.9956    0.0137 C.3     1  UNL1       -0.0093
     30 C          -3.7244    0.1652    0.3426 C.3     1  UNL1       -0.0214
     31 C          -5.1182    0.7285    0.0684 C.3     1  UNL1        0.0579
     32 C          -6.0437   -0.5097    0.1911 C.3     1  UNL1       -0.0004
     33 O          -5.2153    1.2725   -1.2593 O.3     1  UNL1       -0.3917
     34 C          -7.5143   -0.1690    0.0239 C.3     1  UNL1        0.0626
     35 C          -8.3388   -1.4646    0.1017 C.3     1  UNL1        0.0130
     36 O          -7.7412    0.4587   -1.2393 O.3     1  UNL1       -0.3913
     37 C          -9.7857   -1.1054    0.0127 C.2     1  UNL1        0.0442
     38 O         -10.1505    0.2010   -0.0115 O.co2   1  UNL1       -0.5497
     39 O         -10.6481   -1.9907   -0.0033 O.co2   1  UNL1       -0.5497
     40 C           0.1148    2.5085    0.2009 C.3     1  UNL1        0.0293
     41 C          -0.7867    3.4823   -0.6214 C.3     1  UNL1       -0.0445
     42 C           0.2632    2.9189    1.6838 C.3     1  UNL1       -0.0445
     43 H           3.4792   -0.6152    0.8544 H       1  UNL1        0.1552
     44 H           4.6831    2.6608   -0.2168 H       1  UNL1        0.0636
     45 H           7.0441    3.1637   -0.4439 H       1  UNL1        0.0618
     46 H           8.6933    1.4035   -0.2469 H       1  UNL1        0.0618
     47 H           7.9836   -0.8768    0.1721 H       1  UNL1        0.0618
     48 H           5.6357   -1.3653    0.4620 H       1  UNL1        0.0636
     49 H           0.3537   -3.7970    0.5277 H       1  UNL1        0.0624
     50 H           1.7525   -5.7285    0.4863 H       1  UNL1        0.0646
     51 H           4.9414   -3.3030   -0.7064 H       1  UNL1        0.0646
     52 H           3.4668   -1.4049   -0.7858 H       1  UNL1        0.0624
     53 H          -0.2486   -3.8916    0.2371 H       1  UNL1        0.0624
     54 H          -1.6364   -5.8303    0.2342 H       1  UNL1        0.0646
     55 H          -4.9662   -3.3790   -0.3559 H       1  UNL1        0.0646
     56 H          -3.5177   -1.4833   -0.4502 H       1  UNL1        0.0624
     57 H          -2.6882    1.4142   -0.9581 H       1  UNL1        0.0329
     58 H          -2.4621    1.7026    0.8141 H       1  UNL1        0.0329
     59 H          -3.6754   -0.0538    1.3888 H       1  UNL1        0.0294
     60 H          -3.6491   -0.6674   -0.3253 H       1  UNL1        0.0294
     61 H          -5.3681    1.5241    0.7388 H       1  UNL1        0.0594
     62 H          -5.9025   -0.9467    1.1575 H       1  UNL1        0.0315
     63 H          -5.7800   -1.1861   -0.5950 H       1  UNL1        0.0315
     64 H          -4.9964    0.5847   -1.9073 H       1  UNL1        0.2098
     65 H          -7.8079    0.5052    0.8012 H       1  UNL1        0.0598
     66 H          -8.1457   -1.9612    1.0296 H       1  UNL1        0.0350
     67 H          -8.0716   -2.1204   -0.7004 H       1  UNL1        0.0350
     68 H          -7.4781   -0.1445   -1.9520 H       1  UNL1        0.2098
     69 H           1.0468    2.6767   -0.2971 H       1  UNL1        0.0522
     70 H          -1.7885    3.4423   -0.2476 H       1  UNL1        0.0249
     71 H          -0.7784    3.1921   -1.6513 H       1  UNL1        0.0249
     72 H          -0.4111    4.4799   -0.5289 H       1  UNL1        0.0249
     73 H          -0.6632    2.7553    2.1936 H       1  UNL1        0.0249
     74 H           0.5247    3.9548    1.7427 H       1  UNL1        0.0249
     75 H           1.0309    2.3307    2.1416 H       1  UNL1        0.0249
@<TRIPOS>UNITY_ATOM_ATTR
38 1
charge -1
@<TRIPOS>BOND
     1     9    10   ar
     2    20    21   ar
     3    21    15   ar
     4     5     1   ar
     5    16    22   ar
     6    10    11   ar
     7    22    23   ar
     8     1     2   ar
     9    23    24   ar
    10    11    12   ar
    11    24    25   ar
    12     5     6    1
    13    25    26   ar
    14    26    16   ar
    15    12    13   ar
    16    19    27    1
    17    24    28    1
    18    13    14   ar
    19     3    29    1
    20    14     9   ar
    21    29    30    1
    22     6     7    2
    23    30    31    1
    24     1    15    1
    25    31    32    1
    26     2     3   ar
    27    31    33    1
    28     2    16    1
    29    32    34    1
    30     6     8   am
    31    34    35    1
    32    15    17   ar
    33    34    36    1
    34     3     4   ar
    35    35    37    1
    36    17    18   ar
    37     8     9    1
    38    37    38   ar
    39    37    39   ar
    40    18    19   ar
    41     4    40    1
    42     4     5   ar
    43    40    41    1
    44    19    20   ar
    45    40    42    1
    46     8    43    1
    47    10    44    1
    48    11    45    1
    49    12    46    1
    50    13    47    1
    51    14    48    1
    52    17    49    1
    53    18    50    1
    54    20    51    1
    55    21    52    1
    56    22    53    1
    57    23    54    1
    58    25    55    1
    59    26    56    1
    60    29    57    1
    61    29    58    1
    62    30    59    1
    63    30    60    1
    64    31    61    1
    65    32    62    1
    66    32    63    1
    67    33    64    1
    68    34    65    1
    69    35    66    1
    70    35    67    1
    71    36    68    1
    72    40    69    1
    73    41    70    1
    74    41    71    1
    75    41    72    1
    76    42    73    1
    77    42    74    1
    78    42    75    1
@<TRIPOS>MOLECULE
BDB50215672
 73 77 0 0 0
SMALL
GASTEIGER

@<TRIPOS>ATOM
      1 N           2.4026    1.4832    0.0151 N.ar    1  UNL1       -0.2751
      2 C           3.6258    0.7236    0.0264 C.ar    1  UNL1        0.2804
      3 O           4.7193    1.2951    0.0826 O.2     1  UNL1       -0.2650
      4 C           3.5697   -0.7574    0.0067 C.ar    1  UNL1        0.1165
      5 C           2.3862   -1.4573    0.0103 C.ar    1  UNL1        0.0223
      6 C           2.7023   -2.8374    0.0123 C.ar    1  UNL1        0.0114
      7 C           4.1342   -2.8660   -0.0085 C.ar    1  UNL1        0.0281
      8 N           4.5931   -1.5988   -0.0197 N.ar    1  UNL1       -0.3365
      9 C           5.1681   -4.0889   -0.0078 C.3     1  UNL1       -0.0093
     10 C           4.6085   -5.4331   -0.3122 C.3     1  UNL1       -0.0214
     11 C           5.4713   -6.6602   -0.0555 C.3     1  UNL1        0.0579
     12 C           4.4792   -7.8431   -0.1763 C.3     1  UNL1       -0.0004
     13 O           6.0326   -6.6324    1.2661 O.3     1  UNL1       -0.3917
     14 C           5.1598   -9.1899   -0.0209 C.3     1  UNL1        0.0626
     15 C           4.0994  -10.2992   -0.0960 C.3     1  UNL1        0.0130
     16 O           5.8313   -9.2639    1.2374 O.3     1  UNL1       -0.3913
     17 C           4.7969  -11.6169   -0.0137 C.2     1  UNL1        0.0442
     18 O           6.1530  -11.6560    0.0075 O.co2   1  UNL1       -0.5497
     19 O           4.1457  -12.6671    0.0010 O.co2   1  UNL1       -0.5497
     20 C           1.0807   -0.6547    0.0201 C.ar    1  UNL1        0.0088
     21 C           1.1225    0.7451    0.0155 C.ar    1  UNL1        0.0579
     22 C          -0.0850    1.4405    0.0110 C.ar    1  UNL1       -0.0371
     23 C          -1.3211    0.8174    0.0081 C.ar    1  UNL1       -0.0598
     24 C          -1.3619   -0.5612    0.0163 C.ar    1  UNL1       -0.0611
     25 C          -0.1663   -1.2585    0.0257 C.ar    1  UNL1       -0.0520
     26 C           1.6026   -4.0869    0.0429 C.ar    1  UNL1       -0.0154
     27 C           0.2424   -3.8734   -0.1326 C.ar    1  UNL1       -0.0512
     28 C          -0.7136   -4.8830   -0.1309 C.ar    1  UNL1       -0.0259
     29 C          -0.3232   -6.2006    0.0283 C.ar    1  UNL1        0.1234
     30 C           1.0209   -6.4691    0.2107 C.ar    1  UNL1       -0.0259
     31 C           1.9353   -5.4224    0.2341 C.ar    1  UNL1       -0.0512
     32 F          -1.2268   -7.1924    0.0197 F       1  UNL1       -0.2055
     33 C           6.0097   -1.0949   -0.1709 C.3     1  UNL1        0.0293
     34 C           7.1872   -1.8205    0.5454 C.3     1  UNL1       -0.0445
     35 C           6.3564   -0.7047   -1.6243 C.3     1  UNL1       -0.0445
     36 C           2.4612    2.9878    0.0106 C.ar    1  UNL1        0.0528
     37 C           1.3132    3.7784    0.0074 C.ar    1  UNL1       -0.0376
     38 C           1.3659    5.1650    0.0013 C.ar    1  UNL1       -0.0571
     39 C           2.5957    5.8028   -0.0022 C.ar    1  UNL1       -0.0263
     40 C           3.7553    5.0404    0.0005 C.ar    1  UNL1        0.1254
     41 C           3.6860    3.6502    0.0067 C.ar    1  UNL1       -0.0025
     42 F           4.9458    5.6512   -0.0029 F       1  UNL1       -0.2054
     43 H           5.6154   -4.1355    0.9631 H       1  UNL1        0.0329
     44 H           5.8523   -3.8809   -0.8037 H       1  UNL1        0.0329
     45 H           4.3530   -5.4397   -1.3512 H       1  UNL1        0.0294
     46 H           3.7966   -5.5381    0.3768 H       1  UNL1        0.0294
     47 H           6.2954   -6.7226   -0.7351 H       1  UNL1        0.0594
     48 H           4.0130   -7.8031   -1.1386 H       1  UNL1        0.0315
     49 H           3.7622   -7.7481    0.6123 H       1  UNL1        0.0315
     50 H           5.3181   -6.5758    1.9197 H       1  UNL1        0.2098
     51 H           5.8779   -9.3123   -0.8046 H       1  UNL1        0.0598
     52 H           3.5662  -10.2287   -1.0210 H       1  UNL1        0.0350
     53 H           3.4018  -10.1991    0.7091 H       1  UNL1        0.0350
     54 H           5.1874   -9.1538    1.9545 H       1  UNL1        0.2098
     55 H          -0.0563    2.4721    0.0098 H       1  UNL1        0.0638
     56 H          -2.1917    1.3714   -0.0000 H       1  UNL1        0.0618
     57 H          -2.2643   -1.0619    0.0154 H       1  UNL1        0.0618
     58 H          -0.2061   -2.2897    0.0376 H       1  UNL1        0.0624
     59 H          -0.0800   -2.9032   -0.2734 H       1  UNL1        0.0624
     60 H          -1.7121   -4.6500   -0.2481 H       1  UNL1        0.0646
     61 H           1.3437   -7.4422    0.3289 H       1  UNL1        0.0646
     62 H           2.9268   -5.6524    0.4048 H       1  UNL1        0.0624
     63 H           5.9407   -0.2191    0.4399 H       1  UNL1        0.0522
     64 H           7.3932   -2.7444    0.0465 H       1  UNL1        0.0249
     65 H           6.9194   -2.0165    1.5626 H       1  UNL1        0.0249
     66 H           8.0579   -1.1991    0.5191 H       1  UNL1        0.0249
     67 H           6.4225   -1.5880   -2.2246 H       1  UNL1        0.0249
     68 H           7.2947   -0.1907   -1.6415 H       1  UNL1        0.0249
     69 H           5.5922   -0.0651   -2.0138 H       1  UNL1        0.0249
     70 H           0.3907    3.3158    0.0096 H       1  UNL1        0.0638
     71 H           0.4944    5.7177   -0.0006 H       1  UNL1        0.0619
     72 H           2.6489    6.8334   -0.0068 H       1  UNL1        0.0646
     73 H           4.5590    3.0999    0.0084 H       1  UNL1        0.0667
@<TRIPOS>UNITY_ATOM_ATTR
18 1
charge -1
@<TRIPOS>BOND
     1     7     9    1
     2    20    21   ar
     3     4     5   ar
     4    21    22   ar
     5     9    10    1
     6    22    23   ar
     7     1    21   ar
     8    23    24   ar
     9    10    11    1
    10    24    25   ar
    11    25    20   ar
    12     1     2   ar
    13    11    12    1
    14    26    27   ar
    15    20     5   ar
    16    27    28   ar
    17    11    13    1
    18    28    29   ar
    19     4     2   ar
    20    29    30   ar
    21    12    14    1
    22    30    31   ar
    23    31    26   ar
    24     6    26    1
    25    29    32    1
    26    14    15    1
    27     8    33    1
    28     5     6   ar
    29    33    34    1
    30    14    16    1
    31    33    35    1
    32     6     7   ar
    33    15    17    1
    34    36    37   ar
    35     7     8   ar
    36    37    38   ar
    37    17    18   ar
    38    38    39   ar
    39     8     4   ar
    40    39    40   ar
    41    17    19   ar
    42    40    41   ar
    43    41    36   ar
    44     1    36    1
    45     2     3    2
    46    40    42    1
    47     9    43    1
    48     9    44    1
    49    10    45    1
    50    10    46    1
    51    11    47    1
    52    12    48    1
    53    12    49    1
    54    13    50    1
    55    14    51    1
    56    15    52    1
    57    15    53    1
    58    16    54    1
    59    22    55    1
    60    23    56    1
    61    24    57    1
    62    25    58    1
    63    27    59    1
    64    28    60    1
    65    30    61    1
    66    31    62    1
    67    33    63    1
    68    34    64    1
    69    34    65    1
    70    34    66    1
    71    35    67    1
    72    35    68    1
    73    35    69    1
    74    37    70    1
    75    38    71    1
    76    39    72    1
    77    41    73    1
@<TRIPOS>MOLECULE
BDB50215686
 80 83 0 0 0
SMALL
GASTEIGER

@<TRIPOS>ATOM
      1 C           0.7253   -1.0690    0.0132 C.ar    1  UNL1        0.0201
      2 C          -0.6849   -1.1036   -0.0376 C.ar    1  UNL1        0.0113
      3 C          -1.0980    0.2639   -0.0344 C.ar    1  UNL1        0.0280
      4 N          -0.0108    1.0268    0.0602 N.ar    1  UNL1       -0.3367
      5 C           1.1057    0.3064    0.0527 C.ar    1  UNL1        0.1132
      6 C          -0.0539    2.4838    0.2857 C.3     1  UNL1        0.0293
      7 C          -0.3738    3.3855   -0.9363 C.3     1  UNL1       -0.0445
      8 C          -0.6323    2.9692    1.6437 C.3     1  UNL1       -0.0445
      9 C          -1.6761   -2.4464   -0.1030 C.ar    1  UNL1       -0.0154
     10 C          -3.0352   -2.3996   -0.3498 C.ar    1  UNL1       -0.0512
     11 C          -3.8817   -3.5069   -0.3058 C.ar    1  UNL1       -0.0259
     12 C          -3.3560   -4.7611   -0.0559 C.ar    1  UNL1        0.1234
     13 C          -1.9926   -4.8711    0.1500 C.ar    1  UNL1       -0.0259
     14 C          -1.1989   -3.7330    0.1454 C.ar    1  UNL1       -0.0512
     15 C           1.7979   -2.2889   -0.0062 C.ar    1  UNL1       -0.0151
     16 C           3.1575   -2.0820    0.0333 C.ar    1  UNL1       -0.0539
     17 C           4.1014   -3.1076    0.0266 C.ar    1  UNL1       -0.0612
     18 C           3.6855   -4.4260   -0.0089 C.ar    1  UNL1       -0.0617
     19 C           2.3249   -4.6821   -0.0491 C.ar    1  UNL1       -0.0612
     20 C           1.4214   -3.6329   -0.0558 C.ar    1  UNL1       -0.0539
     21 C          -2.5295    0.9729   -0.1307 C.3     1  UNL1       -0.0093
     22 C          -3.7083    0.1720    0.3270 C.3     1  UNL1       -0.0214
     23 C          -5.1028    0.7292    0.0420 C.3     1  UNL1        0.0579
     24 C          -6.0285   -0.5026    0.2057 C.3     1  UNL1       -0.0004
     25 O          -5.2071    1.2333   -1.3016 O.3     1  UNL1       -0.3917
     26 C          -7.4996   -0.1655    0.0334 C.3     1  UNL1        0.0626
     27 C          -8.3227   -1.4613    0.1248 C.3     1  UNL1        0.0130
     28 O          -7.7269    0.4467   -1.2377 O.3     1  UNL1       -0.3913
     29 C          -9.7697   -1.1055    0.0218 C.2     1  UNL1        0.0442
     30 O         -10.1365    0.2001   -0.0136 O.co2   1  UNL1       -0.5497
     31 O         -10.6302   -1.9924    0.0012 O.co2   1  UNL1       -0.5497
     32 C           2.5749    0.9361    0.0703 C.2     1  UNL1        0.2614
     33 O           3.5872    0.2587    0.0026 O.2     1  UNL1       -0.2686
     34 N           2.8571    2.3058    0.1071 N.am    1  UNL1       -0.3060
     35 C           4.2346    2.7371    0.0400 C.3     1  UNL1        0.0372
     36 F          -4.1451   -5.8473   -0.0299 F       1  UNL1       -0.2055
     37 C           4.3308    4.2468    0.0193 C.ar    1  UNL1       -0.0303
     38 C           3.1802    5.0264    0.0163 C.ar    1  UNL1       -0.0565
     39 C           3.2637    6.4090    0.0067 C.ar    1  UNL1       -0.0526
     40 C           4.5081    7.0202   -0.0003 C.ar    1  UNL1       -0.0027
     41 C           5.6656    6.2498   -0.0018 C.ar    1  UNL1       -0.0526
     42 C           5.5772    4.8620    0.0076 C.ar    1  UNL1       -0.0565
     43 C           4.5837    8.4699   -0.0038 C.2     1  UNL1        0.0717
     44 O           3.5423    9.1360    0.0008 O.co2   1  UNL1       -0.5446
     45 O           5.7886    9.0886   -0.0070 O.co2   1  UNL1       -0.5446
     46 H           0.9932    2.6639    0.4121 H       1  UNL1        0.0522
     47 H          -1.4125    3.3018   -1.1791 H       1  UNL1        0.0249
     48 H           0.2145    3.0732   -1.7737 H       1  UNL1        0.0249
     49 H          -0.1439    4.4031   -0.6986 H       1  UNL1        0.0249
     50 H          -1.6945    2.8399    1.6456 H       1  UNL1        0.0249
     51 H          -0.3988    4.0043    1.7813 H       1  UNL1        0.0249
     52 H          -0.2020    2.3977    2.4394 H       1  UNL1        0.0249
     53 H          -3.4513   -1.4842   -0.5821 H       1  UNL1        0.0624
     54 H          -4.8956   -3.3908   -0.4590 H       1  UNL1        0.0646
     55 H          -1.5665   -5.7979    0.3067 H       1  UNL1        0.0646
     56 H          -0.1913   -3.8458    0.3381 H       1  UNL1        0.0624
     57 H           3.4990   -1.1089    0.0701 H       1  UNL1        0.0624
     58 H           5.1086   -2.8835    0.0481 H       1  UNL1        0.0618
     59 H           4.3703   -5.1981   -0.0055 H       1  UNL1        0.0618
     60 H           1.9842   -5.6559   -0.0741 H       1  UNL1        0.0618
     61 H           0.4148   -3.8562   -0.0999 H       1  UNL1        0.0624
     62 H          -2.4915    1.8622    0.4630 H       1  UNL1        0.0329
     63 H          -2.6911    1.1396   -1.1752 H       1  UNL1        0.0329
     64 H          -3.6221    0.0546    1.3870 H       1  UNL1        0.0294
     65 H          -3.6577   -0.7319   -0.2434 H       1  UNL1        0.0294
     66 H          -5.3473    1.5454    0.6893 H       1  UNL1        0.0594
     67 H          -5.8843   -0.9100    1.1845 H       1  UNL1        0.0315
     68 H          -5.7684   -1.2030   -0.5603 H       1  UNL1        0.0315
     69 H          -4.9933    0.5259   -1.9299 H       1  UNL1        0.2098
     70 H          -7.7939    0.5174    0.8027 H       1  UNL1        0.0598
     71 H          -8.1345   -1.9443    1.0609 H       1  UNL1        0.0350
     72 H          -8.0497   -2.1282   -0.6661 H       1  UNL1        0.0350
     73 H          -7.4630   -0.1648   -1.9429 H       1  UNL1        0.2098
     74 H           2.1292    2.9650    0.1775 H       1  UNL1        0.1494
     75 H           4.6805    2.3460   -0.8506 H       1  UNL1        0.0512
     76 H           4.7473    2.3752    0.9067 H       1  UNL1        0.0512
     77 H           2.2543    4.5706    0.0213 H       1  UNL1        0.0621
     78 H           2.4046    6.9808    0.0048 H       1  UNL1        0.0624
     79 H           6.5903    6.7079   -0.0099 H       1  UNL1        0.0624
     80 H           6.4359    4.2896    0.0059 H       1  UNL1        0.0621
@<TRIPOS>UNITY_ATOM_ATTR
30 1
charge -1
45 1
charge -1
@<TRIPOS>BOND
     1     4     5   ar
     2    21    22    1
     3    10    11   ar
     4    22    23    1
     5     5     1   ar
     6    23    24    1
     7    11    12   ar
     8    23    25    1
     9     1     2   ar
    10    24    26    1
    11    12    13   ar
    12    26    27    1
    13     4     6    1
    14    26    28    1
    15    13    14   ar
    16    27    29    1
    17    14     9   ar
    18    29    30   ar
    19     2     9    1
    20    29    31   ar
    21     5    32    1
    22     6     7    1
    23    32    33    2
    24    15    16   ar
    25    32    34   am
    26    34    35    1
    27    16    17   ar
    28    12    36    1
    29     6     8    1
    30    35    37    1
    31    17    18   ar
    32    37    38   ar
    33     2     3   ar
    34    38    39   ar
    35    18    19   ar
    36    39    40   ar
    37     3     4   ar
    38    40    41   ar
    39    19    20   ar
    40    41    42   ar
    41    42    37   ar
    42    20    15   ar
    43    40    43    1
    44     1    15    1
    45    43    44   ar
    46     9    10   ar
    47    43    45   ar
    48     3    21    1
    49     6    46    1
    50     7    47    1
    51     7    48    1
    52     7    49    1
    53     8    50    1
    54     8    51    1
    55     8    52    1
    56    10    53    1
    57    11    54    1
    58    13    55    1
    59    14    56    1
    60    16    57    1
    61    17    58    1
    62    18    59    1
    63    19    60    1
    64    20    61    1
    65    21    62    1
    66    21    63    1
    67    22    64    1
    68    22    65    1
    69    23    66    1
    70    24    67    1
    71    24    68    1
    72    25    69    1
    73    26    70    1
    74    27    71    1
    75    27    72    1
    76    28    73    1
    77    34    74    1
    78    35    75    1
    79    35    76    1
    80    38    77    1
    81    39    78    1
    82    41    79    1
    83    42    80    1
@<TRIPOS>MOLECULE
BDB50215696
 78 81 0 0 0
SMALL
GASTEIGER

@<TRIPOS>ATOM
      1 C           0.7351   -1.0462    0.0109 C.ar    1  UNL1        0.0201
      2 C          -0.6883   -1.0815   -0.0394 C.ar    1  UNL1        0.0113
      3 C          -1.0895    0.2847   -0.0348 C.ar    1  UNL1        0.0280
      4 N          -0.0029    1.0497    0.0604 N.ar    1  UNL1       -0.3367
      5 C           1.1105    0.3190    0.0505 C.ar    1  UNL1        0.1132
      6 C          -0.0314    2.5030    0.2980 C.3     1  UNL1        0.0293
      7 C          -0.3254    3.4188   -0.9197 C.3     1  UNL1       -0.0445
      8 C          -0.6219    2.9842    1.6523 C.3     1  UNL1       -0.0445
      9 C          -1.6726   -2.4334   -0.1029 C.ar    1  UNL1       -0.0154
     10 C          -1.1962   -3.7180    0.1205 C.ar    1  UNL1       -0.0512
     11 C          -1.9863   -4.8611    0.1278 C.ar    1  UNL1       -0.0259
     12 C          -3.3527   -4.7519   -0.0534 C.ar    1  UNL1        0.1234
     13 C          -3.8836   -3.4950   -0.2798 C.ar    1  UNL1       -0.0259
     14 C          -3.0427   -2.3869   -0.3254 C.ar    1  UNL1       -0.0512
     15 C           1.7955   -2.2787   -0.0068 C.ar    1  UNL1       -0.0151
     16 C           3.1652   -2.0715    0.0265 C.ar    1  UNL1       -0.0539
     17 C           4.1011   -3.0996    0.0218 C.ar    1  UNL1       -0.0612
     18 C           3.6822   -4.4185   -0.0053 C.ar    1  UNL1       -0.0617
     19 C           2.3221   -4.6711   -0.0384 C.ar    1  UNL1       -0.0612
     20 C           1.4228   -3.6139   -0.0461 C.ar    1  UNL1       -0.0539
     21 C          -2.5229    1.0004   -0.1299 C.3     1  UNL1       -0.0093
     22 C          -3.7015    0.1912    0.3142 C.3     1  UNL1       -0.0214
     23 C          -5.1011    0.7374    0.0354 C.3     1  UNL1        0.0579
     24 C          -6.0202   -0.5018    0.1980 C.3     1  UNL1       -0.0004
     25 O          -5.2127    1.2437   -1.3059 O.3     1  UNL1       -0.3917
     26 C          -7.4939   -0.1692    0.0316 C.3     1  UNL1        0.0626
     27 C          -8.3170   -1.4656    0.1211 C.3     1  UNL1        0.0130
     28 O          -7.7262    0.4462   -1.2367 O.3     1  UNL1       -0.3913
     29 C          -9.7646   -1.1071    0.0220 C.2     1  UNL1        0.0442
     30 O         -10.1293    0.1994   -0.0109 O.co2   1  UNL1       -0.5497
     31 O         -10.6270   -1.9922    0.0018 O.co2   1  UNL1       -0.5497
     32 C           2.5793    0.9510    0.0697 C.2     1  UNL1        0.2615
     33 O           3.5872    0.2670   -0.0017 O.2     1  UNL1       -0.2686
     34 N           2.8780    2.3204    0.1091 N.am    1  UNL1       -0.3045
     35 C           4.2443    2.7259    0.0424 C.3     1  UNL1        0.0560
     36 F          -4.1393   -5.8398   -0.0264 F       1  UNL1       -0.2055
     37 C           4.2726    4.2143    0.0192 C.ar    1  UNL1        0.0800
     38 N           3.1883    4.9846    0.0163 N.ar    1  UNL1       -0.1771
     39 N           3.5679    6.1928    0.0022 N.ar    1  UNL1       -0.2816
     40 C           4.8913    6.2742   -0.0031 C.ar    1  UNL1        0.0333
     41 C           5.4181    4.9945    0.0060 C.ar    1  UNL1       -0.0168
     42 C           5.6839    7.5451   -0.0144 C.3     1  UNL1       -0.0229
     43 H           1.0162    2.6684    0.4398 H       1  UNL1        0.0522
     44 H          -1.3620    3.3498   -1.1758 H       1  UNL1        0.0249
     45 H           0.2693    3.1066   -1.7526 H       1  UNL1        0.0249
     46 H          -0.0863    4.4315   -0.6703 H       1  UNL1        0.0249
     47 H          -1.6855    2.8685    1.6388 H       1  UNL1        0.0249
     48 H          -0.3771    4.0150    1.8020 H       1  UNL1        0.0249
     49 H          -0.2097    2.4004    2.4487 H       1  UNL1        0.0249
     50 H          -0.1851   -3.8320    0.2931 H       1  UNL1        0.0624
     51 H          -1.5549   -5.7881    0.2679 H       1  UNL1        0.0646
     52 H          -4.9002   -3.3791   -0.4145 H       1  UNL1        0.0646
     53 H          -3.4653   -1.4699   -0.5387 H       1  UNL1        0.0624
     54 H           3.5100   -1.0993    0.0565 H       1  UNL1        0.0624
     55 H           5.1091   -2.8791    0.0385 H       1  UNL1        0.0618
     56 H           4.3653   -5.1921   -0.0009 H       1  UNL1        0.0618
     57 H           1.9771   -5.6435   -0.0573 H       1  UNL1        0.0618
     58 H           0.4154   -3.8349   -0.0833 H       1  UNL1        0.0624
     59 H          -2.6827    1.2747   -1.1517 H       1  UNL1        0.0329
     60 H          -2.4736    1.8267    0.5481 H       1  UNL1        0.0329
     61 H          -3.6167    0.0625    1.3730 H       1  UNL1        0.0294
     62 H          -3.6448   -0.7021   -0.2721 H       1  UNL1        0.0294
     63 H          -5.3493    1.5491    0.6869 H       1  UNL1        0.0594
     64 H          -5.8707   -0.9123    1.1748 H       1  UNL1        0.0315
     65 H          -5.7590   -1.1991   -0.5704 H       1  UNL1        0.0315
     66 H          -4.9957    0.5393   -1.9365 H       1  UNL1        0.2098
     67 H          -7.7863    0.5091    0.8058 H       1  UNL1        0.0598
     68 H          -8.1272   -1.9514    1.0554 H       1  UNL1        0.0350
     69 H          -8.0458   -2.1312   -0.6716 H       1  UNL1        0.0350
     70 H          -7.4635   -0.1628   -1.9445 H       1  UNL1        0.2098
     71 H           2.1590    2.9890    0.1814 H       1  UNL1        0.1494
     72 H           4.6966    2.3387   -0.8466 H       1  UNL1        0.0528
     73 H           4.7880    2.3532    0.8853 H       1  UNL1        0.0528
     74 H           2.9612    6.9681   -0.0040 H       1  UNL1        0.1885
     75 H           6.4067    4.6982    0.0036 H       1  UNL1        0.0654
     76 H           5.0166    8.3815   -0.0198 H       1  UNL1        0.0292
     77 H           6.2991    7.5740   -0.8894 H       1  UNL1        0.0292
     78 H           6.3021    7.5877    0.8579 H       1  UNL1        0.0292
@<TRIPOS>UNITY_ATOM_ATTR
30 1
charge -1
@<TRIPOS>BOND
     1     1    15    1
     2     9    10   ar
     3     3    21    1
     4     4     5   ar
     5    21    22    1
     6    10    11   ar
     7    22    23    1
     8     5     1   ar
     9    23    24    1
    10    11    12   ar
    11    23    25    1
    12     1     2   ar
    13    24    26    1
    14    12    13   ar
    15    26    27    1
    16     4     6    1
    17    26    28    1
    18    13    14   ar
    19    27    29    1
    20    14     9   ar
    21    29    30   ar
    22     2     9    1
    23    29    31   ar
    24     5    32    1
    25     6     7    1
    26    32    33    2
    27    15    16   ar
    28    32    34   am
    29    34    35    1
    30    16    17   ar
    31    12    36    1
    32     6     8    1
    33    35    37    1
    34    37    38   ar
    35    17    18   ar
    36     2     3   ar
    37    18    19   ar
    38     3     4   ar
    39    38    39   ar
    40    39    40   ar
    41    40    41   ar
    42    41    37   ar
    43    19    20   ar
    44    40    42    1
    45    20    15   ar
    46     6    43    1
    47     7    44    1
    48     7    45    1
    49     7    46    1
    50     8    47    1
    51     8    48    1
    52     8    49    1
    53    10    50    1
    54    11    51    1
    55    13    52    1
    56    14    53    1
    57    16    54    1
    58    17    55    1
    59    18    56    1
    60    19    57    1
    61    20    58    1
    62    21    59    1
    63    21    60    1
    64    22    61    1
    65    22    62    1
    66    23    63    1
    67    24    64    1
    68    24    65    1
    69    25    66    1
    70    26    67    1
    71    27    68    1
    72    27    69    1
    73    28    70    1
    74    34    71    1
    75    35    72    1
    76    35    73    1
    77    39    74    1
    78    41    75    1
    79    42    76    1
    80    42    77    1
    81    42    78    1
@<TRIPOS>MOLECULE
BDB50215687
 65 67 0 0 0
SMALL
GASTEIGER

@<TRIPOS>ATOM
      1 C           0.7240   -1.1089   -0.0231 C.ar    1  UNL1        0.0201
      2 C          -0.7053   -1.1350    0.0040 C.ar    1  UNL1        0.0113
      3 C          -1.1003    0.2358    0.0232 C.ar    1  UNL1        0.0280
      4 N          -0.0037    0.9966    0.0082 N.ar    1  UNL1       -0.3367
      5 C           1.0987    0.2560   -0.0484 C.ar    1  UNL1        0.1130
      6 C           0.0591    2.4858    0.2411 C.3     1  UNL1        0.0293
      7 C           0.2297    2.9033    1.7193 C.3     1  UNL1       -0.0445
      8 C          -0.8075    3.4673   -0.6091 C.3     1  UNL1       -0.0445
      9 C          -1.7076   -2.4933   -0.0232 C.ar    1  UNL1       -0.0154
     10 C          -3.0804   -2.4377   -0.2263 C.ar    1  UNL1       -0.0512
     11 C          -3.9313   -3.5375   -0.2206 C.ar    1  UNL1       -0.0259
     12 C          -3.4101   -4.8042   -0.0384 C.ar    1  UNL1        0.1234
     13 C          -2.0437   -4.9268    0.1317 C.ar    1  UNL1       -0.0259
     14 C          -1.2434   -3.7900    0.1448 C.ar    1  UNL1       -0.0512
     15 C           1.7586   -2.3511   -0.0683 C.ar    1  UNL1       -0.0151
     16 C           1.3689   -3.6717    0.0921 C.ar    1  UNL1       -0.0539
     17 C           2.2363   -4.7546    0.0845 C.ar    1  UNL1       -0.0612
     18 C           3.5911   -4.5342   -0.0797 C.ar    1  UNL1       -0.0617
     19 C           4.0259   -3.2286   -0.2515 C.ar    1  UNL1       -0.0612
     20 C           3.1204   -2.1696   -0.2552 C.ar    1  UNL1       -0.0539
     21 C          -2.5359    0.9658    0.0336 C.3     1  UNL1       -0.0093
     22 C          -3.7355    0.1378    0.3268 C.3     1  UNL1       -0.0214
     23 C          -5.1210    0.7125    0.0623 C.3     1  UNL1        0.0579
     24 C          -6.0473   -0.5236    0.1767 C.3     1  UNL1       -0.0004
     25 O          -5.2174    1.2710   -1.2591 O.3     1  UNL1       -0.3917
     26 C          -7.5148   -0.1773    0.0195 C.3     1  UNL1        0.0626
     27 C          -8.3422   -1.4704    0.0936 C.3     1  UNL1        0.0130
     28 O          -7.7436    0.4581   -1.2387 O.3     1  UNL1       -0.3913
     29 C          -9.7874   -1.1056    0.0119 C.2     1  UNL1        0.0442
     30 O         -10.1469    0.2024   -0.0083 O.co2   1  UNL1       -0.5497
     31 O         -10.6531   -1.9874   -0.0024 O.co2   1  UNL1       -0.5497
     32 C           2.5051    0.9984   -0.1461 C.2     1  UNL1        0.2586
     33 O           2.5182    2.1804   -0.5094 O.2     1  UNL1       -0.2688
     34 N           3.7815    0.4987    0.1530 N.am    1  UNL1       -0.3241
     35 F          -4.2077   -5.8834   -0.0230 F       1  UNL1       -0.2055
     36 H           0.9928    2.6553   -0.2532 H       1  UNL1        0.0522
     37 H          -0.6900    2.7454    2.2429 H       1  UNL1        0.0249
     38 H           0.4953    3.9386    1.7691 H       1  UNL1        0.0249
     39 H           1.0019    2.3149    2.1693 H       1  UNL1        0.0249
     40 H          -1.8184    3.4451   -0.2592 H       1  UNL1        0.0249
     41 H          -0.7790    3.1698   -1.6365 H       1  UNL1        0.0249
     42 H          -0.4190    4.4598   -0.5143 H       1  UNL1        0.0249
     43 H          -3.5007   -1.5102   -0.3941 H       1  UNL1        0.0624
     44 H          -4.9468   -3.4084   -0.3518 H       1  UNL1        0.0646
     45 H          -1.6187   -5.8599    0.2487 H       1  UNL1        0.0646
     46 H          -0.2300   -3.9202    0.2901 H       1  UNL1        0.0624
     47 H           0.3637   -3.8627    0.2265 H       1  UNL1        0.0624
     48 H           1.8741   -5.7140    0.2002 H       1  UNL1        0.0618
     49 H           4.2605   -5.3196   -0.0746 H       1  UNL1        0.0618
     50 H           5.0324   -3.0391   -0.3782 H       1  UNL1        0.0618
     51 H           3.4773   -1.2126   -0.4028 H       1  UNL1        0.0624
     52 H          -2.6784    1.4022   -0.9329 H       1  UNL1        0.0329
     53 H          -2.4801    1.6556    0.8496 H       1  UNL1        0.0329
     54 H          -3.6950   -0.1133    1.3661 H       1  UNL1        0.0294
     55 H          -3.6603   -0.6721   -0.3684 H       1  UNL1        0.0294
     56 H          -5.3672    1.5046    0.7382 H       1  UNL1        0.0594
     57 H          -5.9030   -0.9706    1.1381 H       1  UNL1        0.0315
     58 H          -5.7886   -1.1934   -0.6166 H       1  UNL1        0.0315
     59 H          -5.0024    0.5893   -1.9147 H       1  UNL1        0.2098
     60 H          -7.8039    0.4930    0.8018 H       1  UNL1        0.0598
     61 H          -8.1472   -1.9725    1.0181 H       1  UNL1        0.0350
     62 H          -8.0800   -2.1233   -0.7125 H       1  UNL1        0.0350
     63 H          -7.4846   -0.1417   -1.9557 H       1  UNL1        0.2098
     64 H           3.8876   -0.4331    0.4526 H       1  UNL1        0.1453
     65 H           4.5711    1.0798    0.0633 H       1  UNL1        0.1453
@<TRIPOS>UNITY_ATOM_ATTR
30 1
charge -1
@<TRIPOS>BOND
     1     6     8    1
     2    17    18   ar
     3     2     3   ar
     4    18    19   ar
     5     3     4   ar
     6    19    20   ar
     7    20    15   ar
     8     1    15    1
     9     9    10   ar
    10     3    21    1
    11     4     5   ar
    12    21    22    1
    13    10    11   ar
    14    22    23    1
    15     5     1   ar
    16    23    24    1
    17    11    12   ar
    18    23    25    1
    19     1     2   ar
    20    24    26    1
    21    12    13   ar
    22    26    27    1
    23     4     6    1
    24    26    28    1
    25    13    14   ar
    26    27    29    1
    27    14     9   ar
    28    29    30   ar
    29     2     9    1
    30    29    31   ar
    31     5    32    1
    32     6     7    1
    33    32    33    2
    34    15    16   ar
    35    32    34   am
    36    12    35    1
    37    16    17   ar
    38     6    36    1
    39     7    37    1
    40     7    38    1
    41     7    39    1
    42     8    40    1
    43     8    41    1
    44     8    42    1
    45    10    43    1
    46    11    44    1
    47    13    45    1
    48    14    46    1
    49    16    47    1
    50    17    48    1
    51    18    49    1
    52    19    50    1
    53    20    51    1
    54    21    52    1
    55    21    53    1
    56    22    54    1
    57    22    55    1
    58    23    56    1
    59    24    57    1
    60    24    58    1
    61    25    59    1
    62    26    60    1
    63    27    61    1
    64    27    62    1
    65    28    63    1
    66    34    64    1
    67    34    65    1
@<TRIPOS>MOLECULE
BDB50215675
 76 80 0 0 0
SMALL
GASTEIGER

@<TRIPOS>ATOM
      1 N           2.5768    1.4275    0.0298 N.ar    1  UNL1       -0.3020
      2 C           3.7544    0.6267    0.1006 C.ar    1  UNL1        0.2763
      3 O           4.8574    1.1087    0.3193 O.2     1  UNL1       -0.2654
      4 C           3.6375   -0.8185    0.0341 C.ar    1  UNL1        0.1161
      5 C           2.4279   -1.4766    0.0074 C.ar    1  UNL1        0.0223
      6 C           2.7036   -2.8599   -0.0031 C.ar    1  UNL1        0.0114
      7 C           4.1349   -2.9337   -0.0169 C.ar    1  UNL1        0.0281
      8 N           4.6300   -1.6850   -0.0061 N.ar    1  UNL1       -0.3365
      9 C           5.1427   -4.1600   -0.0213 C.3     1  UNL1       -0.0093
     10 C           4.5735   -5.4896   -0.3082 C.3     1  UNL1       -0.0214
     11 C           5.4481   -6.6947   -0.0574 C.3     1  UNL1        0.0579
     12 C           4.4670   -7.8772   -0.1692 C.3     1  UNL1       -0.0004
     13 O           6.0202   -6.6512    1.2594 O.3     1  UNL1       -0.3917
     14 C           5.1578   -9.2111   -0.0169 C.3     1  UNL1        0.0626
     15 C           4.1021  -10.3215   -0.0897 C.3     1  UNL1        0.0130
     16 O           5.8329   -9.2773    1.2395 O.3     1  UNL1       -0.3913
     17 C           4.8021  -11.6344   -0.0113 C.2     1  UNL1        0.0442
     18 O           6.1580  -11.6694    0.0080 O.co2   1  UNL1       -0.5497
     19 O           4.1530  -12.6856    0.0019 O.co2   1  UNL1       -0.5497
     20 C           1.1697   -0.6123    0.0111 C.ar    1  UNL1        0.0085
     21 C           1.3092    0.7755    0.0099 C.ar    1  UNL1        0.0531
     22 C           0.1812    1.5942    0.0005 C.ar    1  UNL1       -0.0375
     23 C          -1.0957    1.0539   -0.0080 C.ar    1  UNL1       -0.0598
     24 C          -1.2457   -0.3228   -0.0057 C.ar    1  UNL1       -0.0611
     25 C          -0.1202   -1.1321    0.0042 C.ar    1  UNL1       -0.0520
     26 C           1.5805   -4.0624    0.0214 C.ar    1  UNL1       -0.0154
     27 C           0.2229   -3.8045   -0.1251 C.ar    1  UNL1       -0.0512
     28 C          -0.7491   -4.8007   -0.1184 C.ar    1  UNL1       -0.0259
     29 C          -0.3833   -6.1296    0.0235 C.ar    1  UNL1        0.1234
     30 C           0.9560   -6.4318    0.1811 C.ar    1  UNL1       -0.0259
     31 C           1.8899   -5.4043    0.1935 C.ar    1  UNL1       -0.0512
     32 F          -1.3047   -7.1049    0.0203 F       1  UNL1       -0.2055
     33 C           6.0533   -1.2244   -0.1847 C.3     1  UNL1        0.0293
     34 C           7.2221   -1.9391    0.5519 C.3     1  UNL1       -0.0445
     35 C           6.3937   -0.8345   -1.6406 C.3     1  UNL1       -0.0445
     36 C           2.5160    2.9390    0.0428 C.3     1  UNL1        0.0545
     37 C           3.7415    3.9059   -0.0151 C.ar    1  UNL1        0.0075
     38 C           3.4776    5.2718    0.0182 C.ar    1  UNL1        0.1283
     39 C           4.5142    6.1985   -0.0080 C.ar    1  UNL1       -0.0261
     40 C           5.8343    5.7721   -0.0631 C.ar    1  UNL1       -0.0590
     41 C           6.1099    4.4134   -0.1063 C.ar    1  UNL1       -0.0613
     42 C           5.0666    3.4972   -0.0896 C.ar    1  UNL1       -0.0541
     43 F           2.2105    5.7007    0.0830 F       1  UNL1       -0.2051
     44 H           5.8900   -3.9617   -0.7610 H       1  UNL1        0.0329
     45 H           5.5091   -4.2238    0.9820 H       1  UNL1        0.0329
     46 H           4.2985   -5.5035   -1.3422 H       1  UNL1        0.0294
     47 H           3.7641   -5.5932    0.3839 H       1  UNL1        0.0294
     48 H           6.2704   -6.7558   -0.7393 H       1  UNL1        0.0594
     49 H           3.9938   -7.8422   -1.1282 H       1  UNL1        0.0315
     50 H           3.7529   -7.7861    0.6224 H       1  UNL1        0.0315
     51 H           5.3107   -6.5951    1.9185 H       1  UNL1        0.2098
     52 H           5.8775   -9.3321   -0.7994 H       1  UNL1        0.0598
     53 H           3.5657  -10.2515   -1.0129 H       1  UNL1        0.0350
     54 H           3.4068  -10.2243    0.7178 H       1  UNL1        0.0350
     55 H           5.1903   -9.1688    1.9580 H       1  UNL1        0.2098
     56 H           0.2984    2.6195   -0.0001 H       1  UNL1        0.0638
     57 H          -1.9237    1.6698   -0.0159 H       1  UNL1        0.0618
     58 H          -2.1882   -0.7431   -0.0113 H       1  UNL1        0.0618
     59 H          -0.2439   -2.1567    0.0065 H       1  UNL1        0.0624
     60 H          -0.0798   -2.8252   -0.2449 H       1  UNL1        0.0624
     61 H          -1.7448   -4.5489   -0.2194 H       1  UNL1        0.0646
     62 H           1.2593   -7.4123    0.2886 H       1  UNL1        0.0646
     63 H           2.8801   -5.6552    0.3405 H       1  UNL1        0.0624
     64 H           6.0068   -0.3415    0.4180 H       1  UNL1        0.0522
     65 H           7.4233   -2.8763    0.0765 H       1  UNL1        0.0249
     66 H           6.9500   -2.1082    1.5728 H       1  UNL1        0.0249
     67 H           8.0971   -1.3244    0.5131 H       1  UNL1        0.0249
     68 H           6.4405   -1.7166   -2.2444 H       1  UNL1        0.0249
     69 H           7.3399   -0.3355   -1.6643 H       1  UNL1        0.0249
     70 H           5.6364   -0.1814   -2.0213 H       1  UNL1        0.0249
     71 H           2.0014    3.1916    0.9463 H       1  UNL1        0.0543
     72 H           2.0987    3.1139   -0.9268 H       1  UNL1        0.0543
     73 H           4.3011    7.2080    0.0136 H       1  UNL1        0.0646
     74 H           6.6036    6.4599   -0.0718 H       1  UNL1        0.0618
     75 H           7.0871    4.0845   -0.1507 H       1  UNL1        0.0618
     76 H           5.2810    2.4887   -0.1336 H       1  UNL1        0.0622
@<TRIPOS>UNITY_ATOM_ATTR
18 1
charge -1
@<TRIPOS>BOND
     1    20    21   ar
     2     4     5   ar
     3    21    22   ar
     4     9    10    1
     5    22    23   ar
     6     1    21   ar
     7    23    24   ar
     8    10    11    1
     9    24    25   ar
    10    25    20   ar
    11     1     2   ar
    12    11    12    1
    13    26    27   ar
    14    20     5   ar
    15    27    28   ar
    16    11    13    1
    17    28    29   ar
    18     4     2   ar
    19    29    30   ar
    20    12    14    1
    21    30    31   ar
    22    31    26   ar
    23     6    26    1
    24    29    32    1
    25    14    15    1
    26     8    33    1
    27     5     6   ar
    28    33    34    1
    29    14    16    1
    30    33    35    1
    31     6     7   ar
    32     1    36    1
    33    15    17    1
    34    36    37    1
    35     7     8   ar
    36    37    38   ar
    37    17    18   ar
    38    38    39   ar
    39     8     4   ar
    40    39    40   ar
    41    17    19   ar
    42    40    41   ar
    43     2     3    2
    44    41    42   ar
    45    42    37   ar
    46     7     9    1
    47    38    43    1
    48     9    44    1
    49     9    45    1
    50    10    46    1
    51    10    47    1
    52    11    48    1
    53    12    49    1
    54    12    50    1
    55    13    51    1
    56    14    52    1
    57    15    53    1
    58    15    54    1
    59    16    55    1
    60    22    56    1
    61    23    57    1
    62    24    58    1
    63    25    59    1
    64    27    60    1
    65    28    61    1
    66    30    62    1
    67    31    63    1
    68    33    64    1
    69    34    65    1
    70    34    66    1
    71    34    67    1
    72    35    68    1
    73    35    69    1
    74    35    70    1
    75    36    71    1
    76    36    72    1
    77    39    73    1
    78    40    74    1
    79    41    75    1
    80    42    76    1
@<TRIPOS>MOLECULE
BDB50215673
 81 84 0 0 0
SMALL
GASTEIGER

@<TRIPOS>ATOM
      1 C           0.8885   -0.9980    0.0007 C.ar    1  UNL1        0.0113
      2 C          -0.5467   -0.9207    0.0225 C.ar    1  UNL1        0.0280
      3 N          -0.8817    0.3789   -0.0054 N.ar    1  UNL1       -0.3367
      4 C          -1.7073   -2.0474    0.0410 C.3     1  UNL1       -0.0093
      5 C          -1.2859   -3.4539    0.3080 C.3     1  UNL1       -0.0214
      6 C          -2.2377   -4.6245    0.0722 C.3     1  UNL1        0.0579
      7 C          -1.3116   -5.8667    0.1539 C.3     1  UNL1       -0.0004
      8 O          -2.8293   -4.5769   -1.2333 O.3     1  UNL1       -0.3917
      9 C          -1.4905   -7.1444    0.9765 C.3     1  UNL1        0.0626
     10 C          -1.1148   -8.3508    0.0563 C.3     1  UNL1        0.0130
     11 O          -2.9215   -7.2394    1.1923 O.3     1  UNL1       -0.3913
     12 C          -1.9195   -9.6132   -0.0002 C.2     1  UNL1        0.0442
     13 O          -3.2746   -9.5453   -0.0489 O.co2   1  UNL1       -0.5497
     14 O          -1.3552  -10.7129    0.0046 O.co2   1  UNL1       -0.5497
     15 C           1.8474   -2.4063   -0.0468 C.ar    1  UNL1       -0.0154
     16 C           3.2410   -2.3760    0.0644 C.ar    1  UNL1       -0.0512
     17 C           4.0484   -3.5065    0.0614 C.ar    1  UNL1       -0.0259
     18 C           3.4861   -4.7664   -0.0523 C.ar    1  UNL1        0.1234
     19 C           2.1169   -4.8533   -0.1972 C.ar    1  UNL1       -0.0259
     20 C           1.3570   -3.6844   -0.2084 C.ar    1  UNL1       -0.0512
     21 F           4.2479   -5.8734   -0.0362 F       1  UNL1       -0.2055
     22 C          -2.2628    0.9642    0.1940 C.3     1  UNL1        0.0293
     23 C          -3.4737    0.4109   -0.6216 C.3     1  UNL1       -0.0445
     24 C          -2.6043    1.2307    1.6758 C.3     1  UNL1       -0.0445
     25 C           0.1773    1.1675   -0.0682 C.ar    1  UNL1        0.1134
     26 C           1.3361    0.3339   -0.0295 C.ar    1  UNL1        0.0201
     27 C           0.0079    2.7419   -0.1940 C.2     1  UNL1        0.2638
     28 O          -1.0174    3.1440   -0.7634 O.2     1  UNL1       -0.2684
     29 N           0.8392    3.8090    0.3471 N.am    1  UNL1       -0.2950
     30 C           0.5122    5.1921   -0.1307 C.3     1  UNL1        0.0397
     31 C           1.6302    6.2703   -0.0863 C.ar    1  UNL1       -0.0301
     32 C           2.9824    5.9413   -0.1050 C.ar    1  UNL1       -0.0571
     33 C           3.9498    6.9414   -0.0603 C.ar    1  UNL1       -0.0615
     34 C           3.5762    8.2790    0.0013 C.ar    1  UNL1       -0.0617
     35 C           2.2286    8.6155    0.0066 C.ar    1  UNL1       -0.0615
     36 C           1.2640    7.6141   -0.0419 C.ar    1  UNL1       -0.0571
     37 C           2.8066    0.9134   -0.0966 C.ar    1  UNL1       -0.0151
     38 C           3.9024    0.1590    0.3537 C.ar    1  UNL1       -0.0539
     39 C           5.2041    0.6151    0.3087 C.ar    1  UNL1       -0.0612
     40 C           5.4609    1.8940   -0.1584 C.ar    1  UNL1       -0.0617
     41 C           4.3966    2.6750   -0.5835 C.ar    1  UNL1       -0.0612
     42 C           3.0889    2.1736   -0.5642 C.ar    1  UNL1       -0.0539
     43 C           1.5192    3.6391    1.6120 C.3     1  UNL1        0.0039
     44 H          -2.1877   -2.0309   -0.9150 H       1  UNL1        0.0329
     45 H          -2.3344   -1.7850    0.8673 H       1  UNL1        0.0329
     46 H          -1.0044   -3.4953    1.3395 H       1  UNL1        0.0294
     47 H          -0.5309   -3.6151   -0.4329 H       1  UNL1        0.0294
     48 H          -3.0447   -4.6237    0.7749 H       1  UNL1        0.0594
     49 H          -0.3676   -5.4753    0.4710 H       1  UNL1        0.0315
     50 H          -1.5199   -6.2765   -0.8123 H       1  UNL1        0.0315
     51 H          -2.1299   -4.5760   -1.9054 H       1  UNL1        0.2098
     52 H          -0.9112   -7.1423    1.8761 H       1  UNL1        0.0598
     53 H          -0.1262   -8.6435    0.3423 H       1  UNL1        0.0350
     54 H          -1.2890   -7.9412   -0.9167 H       1  UNL1        0.0350
     55 H          -3.3785   -7.2357    0.3367 H       1  UNL1        0.2098
     56 H           3.6987   -1.4555    0.1544 H       1  UNL1        0.0624
     57 H           5.0722   -3.4066    0.1443 H       1  UNL1        0.0646
     58 H           1.6602   -5.7734   -0.2962 H       1  UNL1        0.0646
     59 H           0.3397   -3.7847   -0.3499 H       1  UNL1        0.0624
     60 H          -2.1246    1.8987   -0.3084 H       1  UNL1        0.0522
     61 H          -3.7520   -0.5492   -0.2399 H       1  UNL1        0.0249
     62 H          -3.1980    0.3190   -1.6514 H       1  UNL1        0.0249
     63 H          -4.3010    1.0836   -0.5325 H       1  UNL1        0.0249
     64 H          -2.7435    0.2988    2.1829 H       1  UNL1        0.0249
     65 H          -3.5034    1.8076    1.7364 H       1  UNL1        0.0249
     66 H          -1.8026    1.7704    2.1351 H       1  UNL1        0.0249
     67 H          -0.2981    5.5511    0.4688 H       1  UNL1        0.0514
     68 H           0.3051    5.0692   -1.1732 H       1  UNL1        0.0514
     69 H           3.2693    4.9511   -0.1522 H       1  UNL1        0.0621
     70 H           4.9502    6.6883   -0.0730 H       1  UNL1        0.0618
     71 H           4.2958    9.0176    0.0428 H       1  UNL1        0.0618
     72 H           1.9434    9.6065    0.0464 H       1  UNL1        0.0618
     73 H           0.2642    7.8698   -0.0450 H       1  UNL1        0.0621
     74 H           3.7254   -0.7827    0.7371 H       1  UNL1        0.0624
     75 H           5.9792    0.0091    0.6201 H       1  UNL1        0.0618
     76 H           6.4259    2.2585   -0.1894 H       1  UNL1        0.0618
     77 H           4.5700    3.6359   -0.9176 H       1  UNL1        0.0618
     78 H           2.3180    2.7661   -0.9101 H       1  UNL1        0.0624
     79 H           1.6728    2.5965    1.7971 H       1  UNL1        0.0429
     80 H           0.9230    4.0565    2.3963 H       1  UNL1        0.0429
     81 H           2.4649    4.1385    1.5785 H       1  UNL1        0.0429
@<TRIPOS>UNITY_ATOM_ATTR
13 1
charge -1
@<TRIPOS>BOND
     1     2     4    1
     2    18    21    1
     3     9    10    1
     4     3    22    1
     5    26     1   ar
     6    22    23    1
     7     9    11    1
     8    22    24    1
     9     4     5    1
    10    10    12    1
    11    25    26   ar
    12     1     2   ar
    13    25    27    1
    14    12    13   ar
    15    27    28    2
    16     5     6    1
    17    27    29   am
    18    12    14   ar
    19    29    30    1
    20     2     3   ar
    21    30    31    1
    22     6     7    1
    23    31    32   ar
    24    15    16   ar
    25    32    33   ar
    26     3    25   ar
    27    33    34   ar
    28    16    17   ar
    29    34    35   ar
    30     6     8    1
    31    35    36   ar
    32    36    31   ar
    33    17    18   ar
    34    37    38   ar
    35    18    19   ar
    36    38    39   ar
    37     7     9    1
    38    39    40   ar
    39    19    20   ar
    40    40    41   ar
    41    20    15   ar
    42    41    42   ar
    43    42    37   ar
    44    26    37    1
    45     1    15    1
    46    29    43    1
    47     4    44    1
    48     4    45    1
    49     5    46    1
    50     5    47    1
    51     6    48    1
    52     7    49    1
    53     7    50    1
    54     8    51    1
    55     9    52    1
    56    10    53    1
    57    10    54    1
    58    11    55    1
    59    16    56    1
    60    17    57    1
    61    19    58    1
    62    20    59    1
    63    22    60    1
    64    23    61    1
    65    23    62    1
    66    23    63    1
    67    24    64    1
    68    24    65    1
    69    24    66    1
    70    30    67    1
    71    30    68    1
    72    32    69    1
    73    33    70    1
    74    34    71    1
    75    35    72    1
    76    36    73    1
    77    38    74    1
    78    39    75    1
    79    40    76    1
    80    41    77    1
    81    42    78    1
    82    43    79    1
    83    43    80    1
    84    43    81    1
@<TRIPOS>MOLECULE
BDB50215703
 60 61 0 0 0
SMALL
GASTEIGER

@<TRIPOS>ATOM
      1 C           3.7432   -0.9008   -0.0149 C.ar    1  UNL1       -0.0498
      2 C           4.8798   -1.6977    0.0006 C.ar    1  UNL1       -0.0258
      3 C           4.7512   -3.0789    0.0095 C.ar    1  UNL1        0.1234
      4 C           3.4851   -3.6518    0.0064 C.ar    1  UNL1       -0.0258
      5 C           2.3514   -2.8454   -0.0081 C.ar    1  UNL1       -0.0498
      6 C           2.4675   -1.4594   -0.0220 C.ar    1  UNL1        0.0013
      7 C           1.1925   -0.6286   -0.0428 C.ar    1  UNL1        0.0835
      8 N           0.0431   -1.2948   -0.0057 N.ar    1  UNL1       -0.2125
      9 C          -1.1266   -0.6675   -0.0121 C.ar    1  UNL1        0.2377
     10 N          -1.1868    0.6528   -0.0684 N.ar    1  UNL1       -0.2172
     11 C          -0.0925    1.3953   -0.1115 C.ar    1  UNL1        0.0566
     12 C           1.1616    0.7717   -0.0936 C.ar    1  UNL1        0.0224
     13 N          -2.3243   -1.3855    0.0198 N.pl3   1  UNL1       -0.1777
     14 S          -2.3255   -3.0865    0.0148 S.O2    1  UNL1        0.0446
     15 C          -3.5711   -0.6762    0.0189 C.3     1  UNL1        0.0261
     16 C          -1.4811   -3.7064    1.4906 C.3     1  UNL1        0.0739
     17 O          -3.7593   -3.5828    0.0059 O.2     1  UNL1       -0.1552
     18 O          -1.6080   -3.5842   -1.2251 O.2     1  UNL1       -0.1552
     19 F           5.8464   -3.8537    0.0207 F       1  UNL1       -0.2055
     20 C          -0.2931    2.8949   -0.2211 C.3     1  UNL1       -0.0035
     21 C          -1.7248    3.2458    0.2205 C.3     1  UNL1       -0.0572
     22 C          -0.1048    3.3455   -1.6880 C.3     1  UNL1       -0.0572
     23 C           2.4398    1.5479   -0.1434 C.2     1  UNL1       -0.0523
     24 C           2.5696    2.8186    0.2129 C.2     1  UNL1       -0.0551
     25 C           3.8750    3.5014    0.0701 C.3     1  UNL1        0.0760
     26 C           3.6349    5.0059    0.1720 C.3     1  UNL1        0.0032
     27 C           4.9635    5.7395    0.0500 C.3     1  UNL1        0.0629
     28 C           4.7048    7.2480    0.1435 C.3     1  UNL1        0.0130
     29 C           6.0068    7.9760    0.0639 C.2     1  UNL1        0.0442
     30 O           7.1682    7.2790   -0.0269 O.co2   1  UNL1       -0.5497
     31 O           6.0263    9.2109    0.1022 O.co2   1  UNL1       -0.5497
     32 O           5.5679    5.4268   -1.2066 O.3     1  UNL1       -0.3913
     33 O           4.7597    3.0720    1.1047 O.3     1  UNL1       -0.3877
     34 H           3.8456    0.1261   -0.0213 H       1  UNL1        0.0625
     35 H           5.8164   -1.2644    0.0055 H       1  UNL1        0.0646
     36 H           3.3854   -4.6789    0.0149 H       1  UNL1        0.0646
     37 H           1.4153   -3.2798   -0.0085 H       1  UNL1        0.0625
     38 H          -3.3823    0.3770    0.0224 H       1  UNL1        0.0447
     39 H          -4.1326   -0.9408    0.8904 H       1  UNL1        0.0447
     40 H          -4.1284   -0.9357   -0.8569 H       1  UNL1        0.0447
     41 H          -1.4855   -4.7763    1.4811 H       1  UNL1        0.0482
     42 H          -1.9877   -3.3554    2.3653 H       1  UNL1        0.0482
     43 H          -0.4708   -3.3539    1.4980 H       1  UNL1        0.0482
     44 H           0.4217    3.3906    0.4020 H       1  UNL1        0.0359
     45 H          -2.4264    2.7428   -0.4117 H       1  UNL1        0.0236
     46 H          -1.8719    4.3030    0.1463 H       1  UNL1        0.0236
     47 H          -1.8716    2.9355    1.2340 H       1  UNL1        0.0236
     48 H          -0.8207    2.8483   -2.3086 H       1  UNL1        0.0236
     49 H           0.8835    3.0963   -2.0136 H       1  UNL1        0.0236
     50 H          -0.2469    4.4038   -1.7571 H       1  UNL1        0.0236
     51 H           3.2833    1.0578   -0.4801 H       1  UNL1        0.0622
     52 H           1.7584    3.3327    0.5907 H       1  UNL1        0.0598
     53 H           4.3206    3.2643   -0.8734 H       1  UNL1        0.0638
     54 H           3.1873    5.2328    1.1170 H       1  UNL1        0.0318
     55 H           2.9809    5.3176   -0.6154 H       1  UNL1        0.0318
     56 H           5.6227    5.4377    0.8369 H       1  UNL1        0.0598
     57 H           4.2260    7.4719    1.0738 H       1  UNL1        0.0350
     58 H           4.0718    7.5546   -0.6629 H       1  UNL1        0.0350
     59 H           4.9764    5.6974   -1.9262 H       1  UNL1        0.2098
     60 H           4.3712    3.2793    1.9690 H       1  UNL1        0.2102
@<TRIPOS>UNITY_ATOM_ATTR
30 1
charge -1
@<TRIPOS>BOND
     1    14    16    1
     2    14    17    2
     3     8     9   ar
     4    14    18    2
     5     4     5   ar
     6     3    19    1
     7     9    10   ar
     8    11    20    1
     9     2     3   ar
    10    20    21    1
    11    10    11   ar
    12    20    22    1
    13     5     6   ar
    14    12    23    1
    15    11    12   ar
    16    23    24    2
    17    12     7   ar
    18    24    25    1
    19     6     7    1
    20    25    26    1
    21     6     1   ar
    22    26    27    1
    23     9    13    1
    24    27    28    1
    25     1     2   ar
    26    28    29    1
    27    13    14    1
    28    29    30   ar
    29     3     4   ar
    30    29    31   ar
    31    13    15    1
    32    27    32    1
    33     7     8   ar
    34    25    33    1
    35     1    34    1
    36     2    35    1
    37     4    36    1
    38     5    37    1
    39    15    38    1
    40    15    39    1
    41    15    40    1
    42    16    41    1
    43    16    42    1
    44    16    43    1
    45    20    44    1
    46    21    45    1
    47    21    46    1
    48    21    47    1
    49    22    48    1
    50    22    49    1
    51    22    50    1
    52    23    51    1
    53    24    52    1
    54    25    53    1
    55    26    54    1
    56    26    55    1
    57    27    56    1
    58    28    57    1
    59    28    58    1
    60    32    59    1
    61    33    60    1
@<TRIPOS>MOLECULE
BDB50215685
 79 82 0 0 0
SMALL
GASTEIGER

@<TRIPOS>ATOM
      1 C           0.7306   -1.0465    0.0153 C.ar    1  UNL1        0.0201
      2 C          -0.6885   -1.0836   -0.0353 C.ar    1  UNL1        0.0113
      3 C          -1.0960    0.2815   -0.0314 C.ar    1  UNL1        0.0280
      4 N          -0.0092    1.0480    0.0594 N.ar    1  UNL1       -0.3367
      5 C           1.1052    0.3230    0.0534 C.ar    1  UNL1        0.1132
      6 C          -0.0324    2.5031    0.2652 C.3     1  UNL1        0.0293
      7 C          -0.3793    3.3777   -0.9670 C.3     1  UNL1       -0.0445
      8 C          -0.6221    3.0013    1.6126 C.3     1  UNL1       -0.0445
      9 C          -1.6725   -2.4306   -0.1008 C.ar    1  UNL1       -0.0154
     10 C          -1.2001   -3.7125    0.1590 C.ar    1  UNL1       -0.0512
     11 C          -1.9926   -4.8534    0.1613 C.ar    1  UNL1       -0.0259
     12 C          -3.3535   -4.7454   -0.0604 C.ar    1  UNL1        0.1234
     13 C          -3.8772   -3.4918   -0.3216 C.ar    1  UNL1       -0.0259
     14 C          -3.0341   -2.3838   -0.3630 C.ar    1  UNL1       -0.0512
     15 C           1.7948   -2.2743   -0.0042 C.ar    1  UNL1       -0.0151
     16 C           3.1609   -2.0644    0.0374 C.ar    1  UNL1       -0.0539
     17 C           4.1018   -3.0890    0.0297 C.ar    1  UNL1       -0.0612
     18 C           3.6864   -4.4083   -0.0087 C.ar    1  UNL1       -0.0617
     19 C           2.3267   -4.6648   -0.0509 C.ar    1  UNL1       -0.0612
     20 C           1.4225   -3.6126   -0.0567 C.ar    1  UNL1       -0.0539
     21 C          -2.5331    0.9857   -0.1259 C.3     1  UNL1       -0.0093
     22 C          -3.7103    0.1836    0.3451 C.3     1  UNL1       -0.0214
     23 C          -5.1068    0.7385    0.0497 C.3     1  UNL1        0.0579
     24 C          -6.0355   -0.4901    0.2196 C.3     1  UNL1       -0.0004
     25 O          -5.2058    1.2303   -1.2991 O.3     1  UNL1       -0.3917
     26 C          -7.5072   -0.1546    0.0366 C.3     1  UNL1        0.0626
     27 C          -8.3275   -1.4521    0.1335 C.3     1  UNL1        0.0130
     28 O          -7.7297    0.4483   -1.2404 O.3     1  UNL1       -0.3913
     29 C          -9.7754   -1.1040    0.0220 C.2     1  UNL1        0.0442
     30 O         -10.1490    0.1993   -0.0190 O.co2   1  UNL1       -0.5497
     31 O         -10.6310   -1.9957    0.0004 O.co2   1  UNL1       -0.5497
     32 C           2.5730    0.9599    0.0715 C.2     1  UNL1        0.2616
     33 O           3.5803    0.2751    0.0046 O.2     1  UNL1       -0.2686
     34 N           2.8809    2.3358    0.1076 N.am    1  UNL1       -0.2988
     35 C           4.2640    2.7131    0.0490 C.3     1  UNL1        0.1134
     36 F          -4.1419   -5.8331   -0.0387 F       1  UNL1       -0.2055
     37 C           4.4125    4.2054    0.0229 C.ar    1  UNL1        0.2728
     38 N           3.4183    5.0794    0.0254 N.ar    1  UNL1       -0.2437
     39 C           3.9470    6.2867    0.0029 C.ar    1  UNL1        0.1385
     40 C           5.3291    6.1553   -0.0172 C.ar    1  UNL1        0.1312
     41 N           5.5793    4.8463   -0.0043 N.ar    1  UNL1       -0.2458
     42 C           3.1837    7.5762    0.0005 C.3     1  UNL1        0.0009
     43 H           1.0143    2.6902    0.3848 H       1  UNL1        0.0522
     44 H          -1.4200    3.2768   -1.1944 H       1  UNL1        0.0249
     45 H           0.2018    3.0577   -1.8065 H       1  UNL1        0.0249
     46 H          -0.1592    4.4022   -0.7506 H       1  UNL1        0.0249
     47 H          -1.6831    2.8625    1.6106 H       1  UNL1        0.0249
     48 H          -0.3985    4.0402    1.7374 H       1  UNL1        0.0249
     49 H          -0.1910    2.4445    2.4182 H       1  UNL1        0.0249
     50 H          -0.1947   -3.8235    0.3635 H       1  UNL1        0.0624
     51 H          -1.5672   -5.7788    0.3279 H       1  UNL1        0.0646
     52 H          -4.8897   -3.3779   -0.4853 H       1  UNL1        0.0646
     53 H          -3.4486   -1.4700   -0.6040 H       1  UNL1        0.0624
     54 H           3.5022   -1.0913    0.0764 H       1  UNL1        0.0624
     55 H           5.1090   -2.8653    0.0526 H       1  UNL1        0.0618
     56 H           4.3716   -5.1800   -0.0060 H       1  UNL1        0.0618
     57 H           1.9857   -5.6385   -0.0780 H       1  UNL1        0.0618
     58 H           0.4161   -3.8362   -0.1026 H       1  UNL1        0.0624
     59 H          -2.7030    1.2388   -1.1516 H       1  UNL1        0.0329
     60 H          -2.4797    1.8225    0.5388 H       1  UNL1        0.0329
     61 H          -3.6241    0.0807    1.4066 H       1  UNL1        0.0294
     62 H          -3.6570   -0.7303   -0.2088 H       1  UNL1        0.0294
     63 H          -5.3528    1.5595    0.6903 H       1  UNL1        0.0594
     64 H          -5.8967   -0.8886    1.2029 H       1  UNL1        0.0315
     65 H          -5.7723   -1.1966   -0.5396 H       1  UNL1        0.0315
     66 H          -4.9903    0.5169   -1.9200 H       1  UNL1        0.2098
     67 H          -7.8065    0.5347    0.7983 H       1  UNL1        0.0598
     68 H          -8.1416   -1.9278    1.0738 H       1  UNL1        0.0350
     69 H          -8.0491   -2.1226   -0.6525 H       1  UNL1        0.0350
     70 H          -7.4618   -0.1679   -1.9400 H       1  UNL1        0.2098
     71 H           2.1706    3.0146    0.1709 H       1  UNL1        0.1497
     72 H           4.7017    2.3022   -0.8367 H       1  UNL1        0.0588
     73 H           4.7578    2.3362    0.9202 H       1  UNL1        0.0588
     74 H           2.4573    4.8662    0.0412 H       1  UNL1        0.3107
     75 H           6.0235    6.9184   -0.0380 H       1  UNL1        0.1120
     76 H           6.4700    4.4270   -0.0133 H       1  UNL1        0.3105
     77 H           2.1340    7.3694    0.0192 H       1  UNL1        0.0314
     78 H           3.4224    8.1303   -0.8832 H       1  UNL1        0.0314
     79 H           3.4496    8.1497    0.8638 H       1  UNL1        0.0314
@<TRIPOS>UNITY_ATOM_ATTR
30 1
charge -1
41 1
charge 1
@<TRIPOS>BOND
     1     1    15    1
     2     9    10   ar
     3     3    21    1
     4     4     5   ar
     5    21    22    1
     6    10    11   ar
     7    22    23    1
     8     5     1   ar
     9    23    24    1
    10    11    12   ar
    11    23    25    1
    12     1     2   ar
    13    24    26    1
    14    12    13   ar
    15    26    27    1
    16     4     6    1
    17    26    28    1
    18    13    14   ar
    19    27    29    1
    20    14     9   ar
    21    29    30   ar
    22     2     9    1
    23    29    31   ar
    24     5    32    1
    25     6     7    1
    26    32    33    2
    27    15    16   ar
    28    32    34   am
    29    34    35    1
    30    16    17   ar
    31    12    36    1
    32     6     8    1
    33    35    37    1
    34    37    38   ar
    35    17    18   ar
    36     2     3   ar
    37    18    19   ar
    38     3     4   ar
    39    38    39   ar
    40    39    40   ar
    41    40    41   ar
    42    41    37   ar
    43    19    20   ar
    44    39    42    1
    45    20    15   ar
    46     6    43    1
    47     7    44    1
    48     7    45    1
    49     7    46    1
    50     8    47    1
    51     8    48    1
    52     8    49    1
    53    10    50    1
    54    11    51    1
    55    13    52    1
    56    14    53    1
    57    16    54    1
    58    17    55    1
    59    18    56    1
    60    19    57    1
    61    20    58    1
    62    21    59    1
    63    21    60    1
    64    22    61    1
    65    22    62    1
    66    23    63    1
    67    24    64    1
    68    24    65    1
    69    25    66    1
    70    26    67    1
    71    27    68    1
    72    27    69    1
    73    28    70    1
    74    34    71    1
    75    35    72    1
    76    35    73    1
    77    38    74    1
    78    40    75    1
    79    41    76    1
    80    42    77    1
    81    42    78    1
    82    42    79    1
@<TRIPOS>MOLECULE
BDB50215667
 75 78 0 0 0
SMALL
GASTEIGER

@<TRIPOS>ATOM
      1 C           2.4955    1.6902   -0.3544 C.ar    1  UNL1        0.0068
      2 C           3.5091    0.6988   -0.2573 C.ar    1  UNL1        0.0277
      3 N           2.9132   -0.4882   -0.0360 N.ar    1  UNL1       -0.3369
      4 C           5.0981    0.7964   -0.3745 C.3     1  UNL1       -0.0094
      5 C           5.6653    2.1679   -0.4848 C.3     1  UNL1       -0.0214
      6 C           7.1306    2.3258   -0.8379 C.3     1  UNL1        0.0579
      7 C           7.3237    3.8517   -1.0049 C.3     1  UNL1       -0.0004
      8 O           7.4268    1.6572   -2.0687 O.3     1  UNL1       -0.3917
      9 C           8.7680    4.2120   -1.3078 C.3     1  UNL1        0.0626
     10 C           8.8800    5.7335   -1.4875 C.3     1  UNL1        0.0130
     11 O           9.1923    3.5630   -2.5052 O.3     1  UNL1       -0.3913
     12 C          10.3149    6.0751   -1.7275 C.2     1  UNL1        0.0442
     13 O          11.2557    5.0986   -1.6720 O.co2   1  UNL1       -0.5497
     14 O          10.6477    7.2446   -1.9483 O.co2   1  UNL1       -0.5497
     15 C           2.5334    3.3038   -0.6226 C.ar    1  UNL1       -0.0157
     16 C           3.6911    4.0132   -0.9172 C.ar    1  UNL1       -0.0513
     17 C           3.7289    5.3826   -1.1301 C.ar    1  UNL1       -0.0259
     18 C           2.5562    6.1122   -1.0687 C.ar    1  UNL1        0.1234
     19 C           1.3703    5.4478   -0.7966 C.ar    1  UNL1       -0.0259
     20 C           1.3721    4.0726   -0.5779 C.ar    1  UNL1       -0.0513
     21 F           2.5736    7.4365   -1.2753 F       1  UNL1       -0.2055
     22 C           3.5695   -1.7977    0.2711 C.3     1  UNL1        0.0293
     23 C           4.7462   -2.2872   -0.6224 C.3     1  UNL1       -0.0445
     24 C           3.8346   -1.9967    1.7791 C.3     1  UNL1       -0.0445
     25 C           1.5877   -0.3547   -0.0066 C.ar    1  UNL1        0.1088
     26 C           1.2930    0.9949   -0.1748 C.ar    1  UNL1       -0.0094
     27 C          -0.0773    1.6378   -0.1575 C.3     1  UNL1       -0.0235
     28 C           0.6156   -1.5352    0.2029 C.2     1  UNL1        0.2637
     29 C          -1.1668    0.7833    0.3988 C.3     1  UNL1       -0.0331
     30 N          -0.7720   -1.4802   -0.0285 N.am    1  UNL1       -0.2920
     31 C          -1.3505   -0.3306   -0.5671 C.3     1  UNL1        0.0157
     32 O           1.0580   -2.6394    0.5356 O.2     1  UNL1       -0.2684
     33 C          -1.5563   -2.7116    0.2674 C.3     1  UNL1        0.0401
     34 C          -3.1011   -2.7810    0.0304 C.ar    1  UNL1       -0.0301
     35 C          -3.8747   -1.7202   -0.4353 C.ar    1  UNL1       -0.0571
     36 C          -5.2439   -1.8571   -0.6258 C.ar    1  UNL1       -0.0615
     37 C          -5.8627   -3.0683   -0.3494 C.ar    1  UNL1       -0.0617
     38 C          -5.1048   -4.1339    0.1183 C.ar    1  UNL1       -0.0615
     39 C          -3.7350   -3.9880    0.3060 C.ar    1  UNL1       -0.0571
     40 H           5.3956    0.2490   -1.2444 H       1  UNL1        0.0329
     41 H           5.4780    0.4022    0.5449 H       1  UNL1        0.0329
     42 H           5.5162    2.6468    0.4604 H       1  UNL1        0.0294
     43 H           5.1505    2.5944   -1.3202 H       1  UNL1        0.0294
     44 H           7.7741    1.9053   -0.0936 H       1  UNL1        0.0594
     45 H           6.7065    4.1921   -1.8099 H       1  UNL1        0.0315
     46 H           7.0516    4.3224   -0.0833 H       1  UNL1        0.0315
     47 H           6.8617    2.0112   -2.7731 H       1  UNL1        0.2098
     48 H           9.3894    3.8926   -0.4974 H       1  UNL1        0.0598
     49 H           8.5335    6.2283   -0.6043 H       1  UNL1        0.0350
     50 H           8.2826    6.0510   -2.3165 H       1  UNL1        0.0350
     51 H           8.6322    3.8488   -3.2438 H       1  UNL1        0.2098
     52 H           4.5774    3.4885   -0.9815 H       1  UNL1        0.0624
     53 H           4.6247    5.8533   -1.3327 H       1  UNL1        0.0646
     54 H           0.4835    5.9740   -0.7560 H       1  UNL1        0.0646
     55 H           0.4759    3.6032   -0.3742 H       1  UNL1        0.0624
     56 H           2.8015   -2.4753   -0.0388 H       1  UNL1        0.0522
     57 H           5.6142   -1.6932   -0.4260 H       1  UNL1        0.0249
     58 H           4.4748   -2.1923   -1.6531 H       1  UNL1        0.0249
     59 H           4.9585   -3.3126   -0.4024 H       1  UNL1        0.0249
     60 H           4.6019   -1.3227    2.0983 H       1  UNL1        0.0249
     61 H           4.1485   -3.0042    1.9561 H       1  UNL1        0.0249
     62 H           2.9371   -1.8011    2.3279 H       1  UNL1        0.0249
     63 H          -0.3368    1.8937   -1.1635 H       1  UNL1        0.0315
     64 H          -0.0019    2.4862    0.4902 H       1  UNL1        0.0315
     65 H          -2.0711    1.3478    0.4910 H       1  UNL1        0.0283
     66 H          -0.9185    0.4186    1.3736 H       1  UNL1        0.0283
     67 H          -0.8750   -0.0871   -1.4942 H       1  UNL1        0.0465
     68 H          -2.3927   -0.4931   -0.7471 H       1  UNL1        0.0465
     69 H          -1.4014   -2.9247    1.3045 H       1  UNL1        0.0514
     70 H          -1.1834   -3.3993   -0.4626 H       1  UNL1        0.0514
     71 H          -3.4223   -0.8161   -0.6426 H       1  UNL1        0.0621
     72 H          -5.7999   -1.0597   -0.9722 H       1  UNL1        0.0618
     73 H          -6.8793   -3.1763   -0.4905 H       1  UNL1        0.0618
     74 H          -5.5596   -5.0364    0.3271 H       1  UNL1        0.0618
     75 H          -3.1811   -4.7860    0.6545 H       1  UNL1        0.0621
@<TRIPOS>UNITY_ATOM_ATTR
13 1
charge -1
@<TRIPOS>BOND
     1     7     9    1
     2    19    20   ar
     3    20    15   ar
     4     1    15    1
     5     2     4    1
     6    18    21    1
     7     9    10    1
     8     3    22    1
     9    26     1   ar
    10    22    23    1
    11     9    11    1
    12    22    24    1
    13     4     5    1
    14    10    12    1
    15    25    26   ar
    16     1     2   ar
    17    26    27    1
    18    12    13   ar
    19    25    28    1
    20     5     6    1
    21    27    29    1
    22    12    14   ar
    23    28    30   am
    24     2     3   ar
    25    29    31    1
    26    30    31    1
    27     6     7    1
    28    28    32    2
    29    15    16   ar
    30    30    33    1
    31     3    25   ar
    32    33    34    1
    33    16    17   ar
    34    34    35   ar
    35     6     8    1
    36    35    36   ar
    37    17    18   ar
    38    36    37   ar
    39    37    38   ar
    40    18    19   ar
    41    38    39   ar
    42    39    34   ar
    43     4    40    1
    44     4    41    1
    45     5    42    1
    46     5    43    1
    47     6    44    1
    48     7    45    1
    49     7    46    1
    50     8    47    1
    51     9    48    1
    52    10    49    1
    53    10    50    1
    54    11    51    1
    55    16    52    1
    56    17    53    1
    57    19    54    1
    58    20    55    1
    59    22    56    1
    60    23    57    1
    61    23    58    1
    62    23    59    1
    63    24    60    1
    64    24    61    1
    65    24    62    1
    66    27    63    1
    67    27    64    1
    68    29    65    1
    69    29    66    1
    70    31    67    1
    71    31    68    1
    72    33    69    1
    73    33    70    1
    74    35    71    1
    75    36    72    1
    76    37    73    1
    77    38    74    1
    78    39    75    1
@<TRIPOS>MOLECULE
BDB50215682
 72 75 0 0 0
SMALL
GASTEIGER

@<TRIPOS>ATOM
      1 C           0.7407   -0.9451   -0.0093 C.ar    1  UNL1        0.0201
      2 C          -0.6809   -0.9591   -0.0098 C.ar    1  UNL1        0.0113
      3 C          -1.0815    0.3800    0.0443 C.ar    1  UNL1        0.0280
      4 N           0.0038    1.1708    0.0917 N.ar    1  UNL1       -0.3367
      5 C           1.1136    0.4149    0.0455 C.ar    1  UNL1        0.1132
      6 C          -0.0334    2.6041    0.5155 C.3     1  UNL1        0.0293
      7 C          -0.0602    3.7289   -0.5881 C.3     1  UNL1       -0.0445
      8 C           0.6657    2.9648    1.8446 C.3     1  UNL1       -0.0445
      9 C          -1.7174   -2.1948   -0.0324 C.ar    1  UNL1       -0.0154
     10 C          -1.3149   -3.5186   -0.0457 C.ar    1  UNL1       -0.0512
     11 C          -2.1977   -4.5908   -0.0387 C.ar    1  UNL1       -0.0259
     12 C          -3.5599   -4.3517   -0.0163 C.ar    1  UNL1        0.1234
     13 C          -4.0098   -3.0395   -0.0084 C.ar    1  UNL1       -0.0259
     14 C          -3.1000   -1.9878   -0.0176 C.ar    1  UNL1       -0.0512
     15 C           1.7595   -2.1981   -0.0452 C.ar    1  UNL1       -0.0151
     16 C           1.3449   -3.5149    0.0565 C.ar    1  UNL1       -0.0539
     17 C           2.2141   -4.6000    0.0484 C.ar    1  UNL1       -0.0612
     18 C           3.5775   -4.3867   -0.0574 C.ar    1  UNL1       -0.0617
     19 C           4.0341   -3.0825   -0.1678 C.ar    1  UNL1       -0.0612
     20 C           3.1360   -2.0221   -0.1679 C.ar    1  UNL1       -0.0539
     21 C          -2.6057    0.8448    0.0966 C.3     1  UNL1       -0.0093
     22 C          -2.8746    2.3400   -0.0826 C.3     1  UNL1       -0.0214
     23 C          -4.3164    2.7731    0.0210 C.3     1  UNL1        0.0579
     24 C          -4.2771    4.3109   -0.0496 C.3     1  UNL1       -0.0004
     25 O          -4.8648    2.3458    1.2684 O.3     1  UNL1       -0.3917
     26 C          -5.6721    4.9069    0.0170 C.3     1  UNL1        0.0626
     27 C          -5.5583    6.4369   -0.0283 C.3     1  UNL1        0.0130
     28 O          -6.3073    4.5141    1.2322 O.3     1  UNL1       -0.3913
     29 C          -6.9319    7.0216    0.0062 C.2     1  UNL1        0.0442
     30 O          -8.0133    6.2017    0.0062 O.co2   1  UNL1       -0.5497
     31 O          -7.0834    8.2479    0.0170 O.co2   1  UNL1       -0.5497
     32 C           2.5831    0.9938    0.1067 C.2     1  UNL1        0.2614
     33 O           3.4906    0.2746    0.4978 O.2     1  UNL1       -0.2686
     34 N           2.9081    2.3712   -0.2363 N.am    1  UNL1       -0.3073
     35 F          -4.4254   -5.3766   -0.0036 F       1  UNL1       -0.2055
     36 C           4.2406    3.0093   -0.0882 C.3     1  UNL1        0.0236
     37 C           5.2455    2.2460    0.8013 C.3     1  UNL1       -0.0328
     38 C           5.3159    2.1125   -0.7318 C.3     1  UNL1       -0.0328
     39 H          -1.0668    2.6297    0.7918 H       1  UNL1        0.0522
     40 H           0.9213    3.8518   -0.9960 H       1  UNL1        0.0249
     41 H          -0.3824    4.6505   -0.1503 H       1  UNL1        0.0249
     42 H          -0.7377    3.4481   -1.3672 H       1  UNL1        0.0249
     43 H           1.7258    2.9730    1.6993 H       1  UNL1        0.0249
     44 H           0.4133    2.2387    2.5889 H       1  UNL1        0.0249
     45 H           0.3424    3.9327    2.1665 H       1  UNL1        0.0249
     46 H          -0.3029   -3.7204   -0.0617 H       1  UNL1        0.0624
     47 H          -1.8400   -5.5587   -0.0501 H       1  UNL1        0.0646
     48 H          -5.0229   -2.8431    0.0043 H       1  UNL1        0.0646
     49 H          -3.4582   -1.0200   -0.0134 H       1  UNL1        0.0624
     50 H           0.3337   -3.7017    0.1432 H       1  UNL1        0.0624
     51 H           1.8441   -5.5607    0.1210 H       1  UNL1        0.0618
     52 H           4.2382   -5.1794   -0.0542 H       1  UNL1        0.0618
     53 H           5.0461   -2.8981   -0.2503 H       1  UNL1        0.0618
     54 H           3.5046   -1.0629   -0.2630 H       1  UNL1        0.0624
     55 H          -3.0002    0.5562    1.0485 H       1  UNL1        0.0329
     56 H          -3.0726    0.3726   -0.7424 H       1  UNL1        0.0329
     57 H          -2.5173    2.6225   -1.0508 H       1  UNL1        0.0294
     58 H          -2.3711    2.8216    0.7295 H       1  UNL1        0.0294
     59 H          -4.9247    2.3529   -0.7524 H       1  UNL1        0.0594
     60 H          -3.8169    4.6051   -0.9697 H       1  UNL1        0.0315
     61 H          -3.7177    4.6712    0.7884 H       1  UNL1        0.0315
     62 H          -4.3361    2.7097    1.9957 H       1  UNL1        0.2098
     63 H          -6.2538    4.5574   -0.8103 H       1  UNL1        0.0598
     64 H          -5.0631    6.7344   -0.9290 H       1  UNL1        0.0350
     65 H          -4.9933    6.7850    0.8111 H       1  UNL1        0.0350
     66 H          -5.7845    4.8281    1.9865 H       1  UNL1        0.2098
     67 H           2.1810    2.9278   -0.5979 H       1  UNL1        0.1493
     68 H           3.9337    4.0336   -0.1282 H       1  UNL1        0.0498
     69 H           4.9143    1.4202    1.3957 H       1  UNL1        0.0284
     70 H           5.9374    2.5213    1.5697 H       1  UNL1        0.0284
     71 H           5.0343    1.1935   -1.2019 H       1  UNL1        0.0284
     72 H           6.0781    2.2566   -1.4688 H       1  UNL1        0.0284
@<TRIPOS>UNITY_ATOM_ATTR
30 1
charge -1
@<TRIPOS>BOND
     1    18    19   ar
     2     3     4   ar
     3    19    20   ar
     4    20    15   ar
     5     1    15    1
     6     9    10   ar
     7     3    21    1
     8     4     5   ar
     9    21    22    1
    10    10    11   ar
    11    22    23    1
    12     5     1   ar
    13    23    24    1
    14    11    12   ar
    15    23    25    1
    16     1     2   ar
    17    24    26    1
    18    12    13   ar
    19    26    27    1
    20     4     6    1
    21    26    28    1
    22    13    14   ar
    23    27    29    1
    24    14     9   ar
    25    29    30   ar
    26     2     9    1
    27    29    31   ar
    28     5    32    1
    29     6     7    1
    30    32    33    2
    31    15    16   ar
    32    32    34   am
    33    12    35    1
    34    16    17   ar
    35    34    36    1
    36    37    36    1
    37    38    37    1
    38    36    38    1
    39     6     8    1
    40    17    18   ar
    41     2     3   ar
    42     6    39    1
    43     7    40    1
    44     7    41    1
    45     7    42    1
    46     8    43    1
    47     8    44    1
    48     8    45    1
    49    10    46    1
    50    11    47    1
    51    13    48    1
    52    14    49    1
    53    16    50    1
    54    17    51    1
    55    18    52    1
    56    19    53    1
    57    20    54    1
    58    21    55    1
    59    21    56    1
    60    22    57    1
    61    22    58    1
    62    23    59    1
    63    24    60    1
    64    24    61    1
    65    25    62    1
    66    26    63    1
    67    27    64    1
    68    27    65    1
    69    28    66    1
    70    34    67    1
    71    36    68    1
    72    37    69    1
    73    37    70    1
    74    38    71    1
    75    38    72    1
@<TRIPOS>MOLECULE
BDB50007277
 70 71 0 0 0
SMALL
GASTEIGER

@<TRIPOS>ATOM
      1 C           1.2018   -0.5973    0.0377 C.ar    1  UNL1        0.1285
      2 C          -1.2547   -0.6319    0.1302 C.ar    1  UNL1        0.0307
      3 C          -0.0114   -1.2949    0.1563 C.ar    1  UNL1        0.0083
      4 C           1.1941    0.8202   -0.0621 C.ar    1  UNL1        0.0040
      5 C          -0.0358    1.4849    0.0410 C.ar    1  UNL1        0.0041
      6 C          -1.2231    0.7699    0.1168 C.ar    1  UNL1        0.1287
      7 O           2.4010   -1.4935   -0.0105 O.3     1  UNL1       -0.4888
      8 C           9.8783   -0.8385    0.0736 C.2     1  UNL1        0.0442
      9 C           8.5064   -0.2305    0.0506 C.3     1  UNL1        0.0130
     10 C          -2.6479   -1.4435    0.1337 C.ar    1  UNL1       -0.0138
     11 O          10.0231   -2.1795    0.2270 O.co2   1  UNL1       -0.5497
     12 O          10.8772   -0.1173   -0.0223 O.co2   1  UNL1       -0.5497
     13 C           2.4524    1.7059   -0.3288 C.3     1  UNL1       -0.0177
     14 C           0.0486   -2.8312    0.2939 C.3     1  UNL1       -0.0174
     15 C          -0.2653    3.0621    0.2168 C.3     1  UNL1       -0.0177
     16 C           7.4405   -1.3412   -0.0742 C.3     1  UNL1        0.0628
     17 C           6.0610   -0.6994   -0.0537 C.3     1  UNL1        0.0028
     18 O          -2.3454    1.6181    0.2677 O.3     1  UNL1       -0.5059
     19 C          -3.8422   -0.8086   -0.1987 C.ar    1  UNL1       -0.0512
     20 C          -2.7379   -2.8111    0.3850 C.ar    1  UNL1       -0.0512
     21 C           3.6642   -0.8700   -0.0466 C.3     1  UNL1        0.1155
     22 C          -5.1126   -2.8324    0.0138 C.ar    1  UNL1        0.1234
     23 C          -5.0601   -1.4726   -0.2431 C.ar    1  UNL1       -0.0259
     24 C          -3.9407   -3.5058    0.3210 C.ar    1  UNL1       -0.0259
     25 F          -6.2826   -3.4843   -0.0302 F       1  UNL1       -0.2055
     26 C           4.8954   -1.7311   -0.0884 C.3     1  UNL1        0.0915
     27 O           7.6086   -2.0387   -1.3071 O.3     1  UNL1       -0.3913
     28 O           4.8913   -2.5151   -1.2857 O.3     1  UNL1       -0.3883
     29 C           0.2632   -3.6510   -0.9970 C.3     1  UNL1       -0.0585
     30 C           0.7821   -3.3717    1.5511 C.3     1  UNL1       -0.0585
     31 C           3.3682    2.2026    0.8333 C.3     1  UNL1       -0.0585
     32 C           0.6946    4.1391   -0.3684 C.3     1  UNL1       -0.0585
     33 C          -0.6071    3.4166    1.6873 C.3     1  UNL1       -0.0585
     34 C           2.9352    1.8858   -1.8053 C.3     1  UNL1       -0.0585
     35 H           8.4266    0.4332   -0.7849 H       1  UNL1        0.0350
     36 H           8.3460    0.3108    0.9595 H       1  UNL1        0.0350
     37 H           1.8656    2.5806   -0.1406 H       1  UNL1        0.0345
     38 H          -0.9801   -3.0401    0.5012 H       1  UNL1        0.0345
     39 H          -1.0742    3.1569   -0.4772 H       1  UNL1        0.0345
     40 H           7.5446   -2.0293    0.7385 H       1  UNL1        0.0598
     41 H           5.9724   -0.0596   -0.9067 H       1  UNL1        0.0316
     42 H           5.9778   -0.1615    0.8675 H       1  UNL1        0.0316
     43 H          -3.2051    1.2508    0.3304 H       1  UNL1        0.2922
     44 H          -3.8206    0.1988   -0.4215 H       1  UNL1        0.0624
     45 H          -1.8786   -3.3284    0.6280 H       1  UNL1        0.0624
     46 H           3.7380   -0.2580    0.8280 H       1  UNL1        0.0723
     47 H           3.6738   -0.3588   -0.9865 H       1  UNL1        0.0723
     48 H          -5.9241   -0.9545   -0.4669 H       1  UNL1        0.0646
     49 H          -3.9608   -4.5216    0.5020 H       1  UNL1        0.0646
     50 H           4.9704   -2.4337    0.7151 H       1  UNL1        0.0628
     51 H           7.5147   -1.4170   -2.0457 H       1  UNL1        0.2098
     52 H           4.8246   -1.9290   -2.0557 H       1  UNL1        0.2099
     53 H           1.2736   -3.5349   -1.3294 H       1  UNL1        0.0235
     54 H          -0.4045   -3.3016   -1.7566 H       1  UNL1        0.0235
     55 H           0.0692   -4.6846   -0.7995 H       1  UNL1        0.0235
     56 H           1.8348   -3.2108    1.4466 H       1  UNL1        0.0235
     57 H           0.5899   -4.4193    1.6534 H       1  UNL1        0.0235
     58 H           0.4272   -2.8575    2.4197 H       1  UNL1        0.0235
     59 H           4.1732    1.5117    0.9732 H       1  UNL1        0.0235
     60 H           2.7956    2.2703    1.7346 H       1  UNL1        0.0235
     61 H           3.7637    3.1663    0.5888 H       1  UNL1        0.0235
     62 H           1.5857    4.1814    0.2223 H       1  UNL1        0.0235
     63 H           0.2112    5.0936   -0.3536 H       1  UNL1        0.0235
     64 H           0.9466    3.8825   -1.3762 H       1  UNL1        0.0235
     65 H           0.2635    3.2899    2.2963 H       1  UNL1        0.0235
     66 H          -1.3849    2.7711    2.0383 H       1  UNL1        0.0235
     67 H          -0.9357    4.4334    1.7419 H       1  UNL1        0.0235
     68 H           3.5379    1.0481   -2.0880 H       1  UNL1        0.0235
     69 H           3.5121    2.7834   -1.8850 H       1  UNL1        0.0235
     70 H           2.0859    1.9490   -2.4531 H       1  UNL1        0.0235
@<TRIPOS>UNITY_ATOM_ATTR
11 1
charge -1
@<TRIPOS>BOND
     1     4     1   ar
     2     5     4   ar
     3     6     2   ar
     4     7     1    1
     5     8     9    1
     6     9    16    1
     7    10     2    1
     8    11     8   ar
     9    12     8   ar
    10    13     4    1
    11    14     3    1
    12    15     5    1
    13    16    17    1
    14    17    26    1
    15    18     6    1
    16    19    10   ar
    17    20    10   ar
    18    21     7    1
    19    22    24   ar
    20    23    19   ar
    21    24    20   ar
    22    25    22    1
    23    26    21    1
    24    16    27    1
    25    28    26    1
    26    29    14    1
    27    30    14    1
    28    31    13    1
    29    32    15    1
    30    33    15    1
    31    34    13    1
    32     6     5   ar
    33    22    23   ar
    34     2     3   ar
    35     3     1   ar
    36     9    35    1
    37     9    36    1
    38    13    37    1
    39    14    38    1
    40    15    39    1
    41    16    40    1
    42    17    41    1
    43    17    42    1
    44    18    43    1
    45    19    44    1
    46    20    45    1
    47    21    46    1
    48    21    47    1
    49    23    48    1
    50    24    49    1
    51    26    50    1
    52    27    51    1
    53    28    52    1
    54    29    53    1
    55    29    54    1
    56    29    55    1
    57    30    56    1
    58    30    57    1
    59    30    58    1
    60    31    59    1
    61    31    60    1
    62    31    61    1
    63    32    62    1
    64    32    63    1
    65    32    64    1
    66    33    65    1
    67    33    66    1
    68    33    67    1
    69    34    68    1
    70    34    69    1
    71    34    70    1
@<TRIPOS>MOLECULE
BDB50215678
 76 80 0 0 0
SMALL
GASTEIGER

@<TRIPOS>ATOM
      1 N           2.5739    1.4194    0.0343 N.ar    1  UNL1       -0.3021
      2 C           3.7479    0.6137    0.1209 C.ar    1  UNL1        0.2763
      3 O           4.8453    1.0866    0.3845 O.2     1  UNL1       -0.2654
      4 C           3.6300   -0.8264    0.0413 C.ar    1  UNL1        0.1161
      5 C           2.4205   -1.4831    0.0063 C.ar    1  UNL1        0.0223
      6 C           2.6969   -2.8663   -0.0072 C.ar    1  UNL1        0.0114
      7 C           4.1283   -2.9400   -0.0183 C.ar    1  UNL1        0.0281
      8 N           4.6231   -1.6917   -0.0017 N.ar    1  UNL1       -0.3365
      9 C           5.1372   -4.1645   -0.0233 C.3     1  UNL1       -0.0093
     10 C           4.5699   -5.4942   -0.3078 C.3     1  UNL1       -0.0214
     11 C           5.4465   -6.6969   -0.0575 C.3     1  UNL1        0.0579
     12 C           4.4665   -7.8798   -0.1687 C.3     1  UNL1       -0.0004
     13 O           6.0193   -6.6520    1.2589 O.3     1  UNL1       -0.3917
     14 C           5.1580   -9.2127   -0.0166 C.3     1  UNL1        0.0626
     15 C           4.1025  -10.3231   -0.0892 C.3     1  UNL1        0.0130
     16 O           5.8333   -9.2783    1.2397 O.3     1  UNL1       -0.3913
     17 C           4.8025  -11.6356   -0.0111 C.2     1  UNL1        0.0442
     18 O           6.1585  -11.6704    0.0080 O.co2   1  UNL1       -0.5497
     19 O           4.1536  -12.6869    0.0019 O.co2   1  UNL1       -0.5497
     20 C           1.1624   -0.6174    0.0090 C.ar    1  UNL1        0.0085
     21 C           1.3038    0.7706    0.0092 C.ar    1  UNL1        0.0531
     22 C           0.1770    1.5908   -0.0008 C.ar    1  UNL1       -0.0375
     23 C          -1.1006    1.0519   -0.0106 C.ar    1  UNL1       -0.0598
     24 C          -1.2524   -0.3246   -0.0100 C.ar    1  UNL1       -0.0611
     25 C          -0.1281   -1.1356   -0.0004 C.ar    1  UNL1       -0.0520
     26 C           1.5752   -4.0674    0.0158 C.ar    1  UNL1       -0.0154
     27 C           0.2176   -3.8089   -0.1280 C.ar    1  UNL1       -0.0512
     28 C          -0.7543   -4.8053   -0.1196 C.ar    1  UNL1       -0.0259
     29 C          -0.3882   -6.1340    0.0225 C.ar    1  UNL1        0.1234
     30 C           0.9513   -6.4365    0.1780 C.ar    1  UNL1       -0.0259
     31 C           1.8851   -5.4091    0.1877 C.ar    1  UNL1       -0.0512
     32 F          -1.3093   -7.1093    0.0214 F       1  UNL1       -0.2055
     33 C           6.0461   -1.2295   -0.1820 C.3     1  UNL1        0.0293
     34 C           7.2173   -1.9442    0.5509 C.3     1  UNL1       -0.0445
     35 C           6.3836   -0.8329   -1.6369 C.3     1  UNL1       -0.0445
     36 C           2.5235    2.9320    0.0540 C.3     1  UNL1        0.0518
     37 C           3.7654    3.8768   -0.0111 C.ar    1  UNL1       -0.0275
     38 C           5.0752    3.4401   -0.1588 C.ar    1  UNL1       -0.0542
     39 C           6.1418    4.3280   -0.1694 C.ar    1  UNL1       -0.0261
     40 C           5.9041    5.6883   -0.0449 C.ar    1  UNL1        0.1234
     41 C           4.5987    6.1477    0.0760 C.ar    1  UNL1       -0.0261
     42 C           3.5395    5.2460    0.0934 C.ar    1  UNL1       -0.0542
     43 F           6.9309    6.5503   -0.0406 F       1  UNL1       -0.2055
     44 H           5.8830   -3.9659   -0.7644 H       1  UNL1        0.0329
     45 H           5.5052   -4.2269    0.9795 H       1  UNL1        0.0329
     46 H           4.2931   -5.5095   -1.3413 H       1  UNL1        0.0294
     47 H           3.7618   -5.5984    0.3857 H       1  UNL1        0.0294
     48 H           6.2689   -6.7573   -0.7393 H       1  UNL1        0.0594
     49 H           3.9929   -7.8453   -1.1275 H       1  UNL1        0.0315
     50 H           3.7527   -7.7891    0.6232 H       1  UNL1        0.0315
     51 H           5.3101   -6.5964    1.9184 H       1  UNL1        0.2098
     52 H           5.8779   -9.3337   -0.7989 H       1  UNL1        0.0598
     53 H           3.5658  -10.2531   -1.0122 H       1  UNL1        0.0350
     54 H           3.4074  -10.2260    0.7185 H       1  UNL1        0.0350
     55 H           5.1908   -9.1698    1.9582 H       1  UNL1        0.2098
     56 H           0.2954    2.6160   -0.0009 H       1  UNL1        0.0638
     57 H          -1.9279    1.6688   -0.0182 H       1  UNL1        0.0618
     58 H          -2.1955   -0.7436   -0.0167 H       1  UNL1        0.0618
     59 H          -0.2532   -2.1600   -0.0002 H       1  UNL1        0.0624
     60 H          -0.0852   -2.8295   -0.2469 H       1  UNL1        0.0624
     61 H          -1.7502   -4.5537   -0.2195 H       1  UNL1        0.0646
     62 H           1.2547   -7.4170    0.2859 H       1  UNL1        0.0646
     63 H           2.8756   -5.6599    0.3324 H       1  UNL1        0.0624
     64 H           5.9993   -0.3490    0.4241 H       1  UNL1        0.0522
     65 H           7.4198   -2.8795    0.0722 H       1  UNL1        0.0249
     66 H           6.9468   -2.1171    1.5716 H       1  UNL1        0.0249
     67 H           8.0910   -1.3276    0.5130 H       1  UNL1        0.0249
     68 H           6.4308   -1.7124   -2.2445 H       1  UNL1        0.0249
     69 H           7.3290   -0.3323   -1.6600 H       1  UNL1        0.0249
     70 H           5.6247   -0.1794   -2.0136 H       1  UNL1        0.0249
     71 H           2.0197    3.1875    0.9628 H       1  UNL1        0.0542
     72 H           2.0912    3.1201   -0.9065 H       1  UNL1        0.0542
     73 H           5.2601    2.4302   -0.2633 H       1  UNL1        0.0622
     74 H           7.1073    3.9774   -0.2695 H       1  UNL1        0.0646
     75 H           4.4143    7.1602    0.1531 H       1  UNL1        0.0646
     76 H           2.5734    5.5971    0.1850 H       1  UNL1        0.0622
@<TRIPOS>UNITY_ATOM_ATTR
18 1
charge -1
@<TRIPOS>BOND
     1    20    21   ar
     2     4     5   ar
     3    21    22   ar
     4     9    10    1
     5    22    23   ar
     6     1    21   ar
     7    23    24   ar
     8    10    11    1
     9    24    25   ar
    10    25    20   ar
    11     1     2   ar
    12    11    12    1
    13    26    27   ar
    14    20     5   ar
    15    27    28   ar
    16    11    13    1
    17    28    29   ar
    18     4     2   ar
    19    29    30   ar
    20    12    14    1
    21    30    31   ar
    22    31    26   ar
    23     6    26    1
    24    29    32    1
    25    14    15    1
    26     8    33    1
    27     5     6   ar
    28    33    34    1
    29    14    16    1
    30    33    35    1
    31     6     7   ar
    32     1    36    1
    33    15    17    1
    34    36    37    1
    35     7     8   ar
    36    37    38   ar
    37    17    18   ar
    38    38    39   ar
    39     8     4   ar
    40    39    40   ar
    41    17    19   ar
    42    40    41   ar
    43     2     3    2
    44    41    42   ar
    45    42    37   ar
    46     7     9    1
    47    40    43    1
    48     9    44    1
    49     9    45    1
    50    10    46    1
    51    10    47    1
    52    11    48    1
    53    12    49    1
    54    12    50    1
    55    13    51    1
    56    14    52    1
    57    15    53    1
    58    15    54    1
    59    16    55    1
    60    22    56    1
    61    23    57    1
    62    24    58    1
    63    25    59    1
    64    27    60    1
    65    28    61    1
    66    30    62    1
    67    31    63    1
    68    33    64    1
    69    34    65    1
    70    34    66    1
    71    34    67    1
    72    35    68    1
    73    35    69    1
    74    35    70    1
    75    36    71    1
    76    36    72    1
    77    38    73    1
    78    39    74    1
    79    41    75    1
    80    42    76    1
@<TRIPOS>MOLECULE
BDB50007286
 65 67 0 0 0
SMALL
GASTEIGER

@<TRIPOS>ATOM
      1 C           1.1335   -0.7654    0.3184 C.3     1  UNL1       -0.0090
      2 C           1.3445    0.6843   -0.1551 C.3     1  UNL1       -0.0218
      3 C           0.0309    1.4196   -0.3037 C.2     1  UNL1       -0.0775
      4 C          -0.1159   -1.4421    0.7183 C.3     1  UNL1        0.1106
      5 C          -1.2440   -0.6328    0.2535 C.3     1  UNL1        0.0243
      6 C          -1.1541    0.8276   -0.1327 C.2     1  UNL1       -0.0444
      7 C          -2.3514    1.5668   -0.5065 C.2     1  UNL1       -0.0621
      8 C          -3.3556    0.8881   -1.0646 C.2     1  UNL1       -0.0806
      9 C          -3.2087   -0.6035   -1.3038 C.3     1  UNL1       -0.0219
     10 C          -2.6518   -1.2193   -0.0183 C.3     1  UNL1       -0.0247
     11 C          -4.5925   -1.2049   -1.6124 C.3     1  UNL1       -0.0587
     12 C          -3.6099   -0.8616    1.1350 C.3     1  UNL1       -0.0457
     13 C          -3.7117    0.6702    1.2666 C.3     1  UNL1       -0.0153
     14 C          -4.6686    1.0221    2.4192 C.3     1  UNL1        0.1054
     15 O          -5.9749    0.4886    2.1099 O.3     1  UNL1       -0.4612
     16 C          -6.8248    0.2258    3.2153 C.2     1  UNL1        0.3098
     17 C          -6.3685    0.3067    4.6589 C.3     1  UNL1        0.0710
     18 C          -5.0068    0.9736    4.8189 C.3     1  UNL1        0.0686
     19 C          -4.0891    0.4674    3.7233 C.3     1  UNL1        0.0109
     20 O          -7.9630   -0.2011    2.9866 O.2     1  UNL1       -0.2507
     21 O          -5.1393    2.3898    4.6689 O.3     1  UNL1       -0.3911
     22 O          -0.1774   -2.7774    0.0247 O.3     1  UNL1       -0.4605
     23 C          -0.2317   -2.9945    1.4267 C.2     1  UNL1        0.3102
     24 O          -0.2024   -2.0643    2.2409 O.2     1  UNL1       -0.2505
     25 C          -0.3296   -4.4001    1.9356 C.3     1  UNL1        0.0534
     26 C          -0.2741   -4.3954    3.4748 C.3     1  UNL1       -0.0432
     27 C           0.8367   -5.2318    1.3697 C.3     1  UNL1       -0.0523
     28 C          -0.3995   -5.8376    4.0011 C.3     1  UNL1       -0.0645
     29 C           2.0000    0.6560   -1.5492 C.3     1  UNL1       -0.0588
     30 H           1.7721   -0.8615    1.1715 H       1  UNL1        0.0307
     31 H           1.2729   -1.2527   -0.6239 H       1  UNL1        0.0307
     32 H           1.9517    1.1804    0.5730 H       1  UNL1        0.0342
     33 H           0.0512    2.4221   -0.5478 H       1  UNL1        0.0578
     34 H          -0.1514   -1.5682    1.7803 H       1  UNL1        0.0740
     35 H          -0.6498   -0.8867    1.1064 H       1  UNL1        0.0388
     36 H          -2.4212    2.5837   -0.3449 H       1  UNL1        0.0617
     37 H          -4.2260    1.3740   -1.3317 H       1  UNL1        0.0575
     38 H          -2.5557   -0.7999   -2.1284 H       1  UNL1        0.0343
     39 H          -2.5713   -2.2826   -0.1061 H       1  UNL1        0.0313
     40 H          -5.2547   -1.0145   -0.7938 H       1  UNL1        0.0235
     41 H          -4.4983   -2.2609   -1.7568 H       1  UNL1        0.0235
     42 H          -4.9859   -0.7571   -2.5010 H       1  UNL1        0.0235
     43 H          -3.2361   -1.2734    2.0491 H       1  UNL1        0.0269
     44 H          -4.5792   -1.2657    0.9298 H       1  UNL1        0.0269
     45 H          -4.0863    1.0828    0.3532 H       1  UNL1        0.0301
     46 H          -2.7429    1.0765    1.4699 H       1  UNL1        0.0301
     47 H          -4.7744    2.0798    2.5419 H       1  UNL1        0.0734
     48 H          -6.3101   -0.6861    5.0538 H       1  UNL1        0.0403
     49 H          -7.0813    0.9060    5.1859 H       1  UNL1        0.0403
     50 H          -4.6118    0.7463    5.7870 H       1  UNL1        0.0600
     51 H          -3.0928    0.8276    3.8733 H       1  UNL1        0.0326
     52 H          -4.0346   -0.6012    3.7119 H       1  UNL1        0.0326
     53 H          -5.4976    2.5897    3.7900 H       1  UNL1        0.2098
     54 H          -1.2559   -4.8331    1.6203 H       1  UNL1        0.0410
     55 H          -1.0799   -3.8051    3.8583 H       1  UNL1        0.0270
     56 H           0.6585   -3.9801    3.7953 H       1  UNL1        0.0270
     57 H           1.7656   -4.8025    1.6824 H       1  UNL1        0.0238
     58 H           0.7870   -5.2347    0.3009 H       1  UNL1        0.0238
     59 H           0.7677   -6.2360    1.7327 H       1  UNL1        0.0238
     60 H          -1.3317   -6.2542    3.6813 H       1  UNL1        0.0230
     61 H          -0.3595   -5.8318    5.0703 H       1  UNL1        0.0230
     62 H           0.4057   -6.4286    3.6173 H       1  UNL1        0.0230
     63 H           1.3543    0.1508   -2.2368 H       1  UNL1        0.0235
     64 H           2.9354    0.1395   -1.4931 H       1  UNL1        0.0235
     65 H           2.1656    1.6581   -1.8859 H       1  UNL1        0.0235
@<TRIPOS>BOND
     1    14    15    1
     2     2     3    1
     3     3     6    2
     4     5     4    1
     5     5    10    1
     6     6     7    1
     7    14    19    1
     8    15    16    1
     9    16    17    1
    10    17    18    1
    11    18    19    1
    12     7     8    2
    13    16    20    2
    14     8     9    1
    15    18    21    1
    16     9    10    1
    17     5     6    1
    18     4    22    1
    19     9    11    1
    20    22    23    1
    21    23    24    2
    22    10    12    1
    23    23    25    1
    24     1     2    1
    25    25    26    1
    26    12    13    1
    27    25    27    1
    28     1     4    1
    29    26    28    1
    30    14    13    1
    31     2    29    1
    32     1    30    1
    33     1    31    1
    34     2    32    1
    35     3    33    1
    36     4    34    1
    37     5    35    1
    38     7    36    1
    39     8    37    1
    40     9    38    1
    41    10    39    1
    42    11    40    1
    43    11    41    1
    44    11    42    1
    45    12    43    1
    46    12    44    1
    47    13    45    1
    48    13    46    1
    49    14    47    1
    50    17    48    1
    51    17    49    1
    52    18    50    1
    53    19    51    1
    54    19    52    1
    55    21    53    1
    56    25    54    1
    57    26    55    1
    58    26    56    1
    59    27    57    1
    60    27    58    1
    61    27    59    1
    62    28    60    1
    63    28    61    1
    64    28    62    1
    65    29    63    1
    66    29    64    1
    67    29    65    1
@<TRIPOS>MOLECULE
BDB50279858
 48 49 0 0 0
SMALL
GASTEIGER

@<TRIPOS>ATOM
      1 C           1.2329   -0.6827   -0.0001 C.ar    1  UNL1        0.0127
      2 C           1.2359    0.7069    0.0000 C.ar    1  UNL1        0.1269
      3 C           0.0283   -1.3754   -0.0002 C.ar    1  UNL1        0.0490
      4 C           0.0336    1.4040    0.0000 C.ar    1  UNL1       -0.0012
      5 C          -1.1738   -0.6787   -0.0002 C.ar    1  UNL1       -0.0245
      6 C           8.7596   -0.0844   -0.0092 C.3     1  UNL1        0.0130
      7 C          10.0684   -0.8286    0.0007 C.2     1  UNL1        0.0442
      8 C           2.5326   -1.4364    0.0001 C.3     1  UNL1       -0.0205
      9 C          -1.1710    0.7109   -0.0001 C.ar    1  UNL1        0.0458
     10 O           2.4494    1.4040    0.0001 O.3     1  UNL1       -0.4870
     11 O          11.1340   -0.2013    0.0018 O.co2   1  UNL1       -0.5497
     12 C           7.5809   -1.0801   -0.0209 C.3     1  UNL1        0.0626
     13 C           6.2470   -0.2919   -0.0311 C.3     1  UNL1       -0.0004
     14 CL          0.0246   -3.0924   -0.0004 Cl      1  UNL1       -0.0831
     15 C           2.2188    2.8204    0.0002 C.3     1  UNL1        0.1146
     16 C           3.7247   -0.4558   -0.0048 C.3     1  UNL1       -0.0226
     17 CL         -2.6573    1.5705   -0.0001 Cl      1  UNL1       -0.0834
     18 O          10.0828   -2.1870    0.0087 O.co2   1  UNL1       -0.5497
     19 C           5.0407   -1.2608   -0.0224 C.3     1  UNL1        0.0579
     20 C           3.5315    3.5536    0.0004 C.ar    1  UNL1       -0.0104
     21 O           7.6705   -1.9023   -1.1874 O.3     1  UNL1       -0.3913
     22 O           5.0665   -2.0835   -1.1904 O.3     1  UNL1       -0.3917
     23 C           4.7250    2.8433    0.0006 C.ar    1  UNL1       -0.0554
     24 C           3.5489    4.9440    0.0004 C.ar    1  UNL1       -0.0554
     25 C           4.7610    5.6229    0.0006 C.ar    1  UNL1       -0.0614
     26 C           5.9382    3.5229    0.0008 C.ar    1  UNL1       -0.0614
     27 C           5.9559    4.9120    0.0009 C.ar    1  UNL1       -0.0617
     28 H           0.0353    2.4360    0.0001 H       1  UNL1        0.0669
     29 H          -2.0685   -1.1931   -0.0003 H       1  UNL1        0.0647
     30 H           8.6953    0.5293    0.8650 H       1  UNL1        0.0350
     31 H           8.7109    0.5249   -0.8875 H       1  UNL1        0.0350
     32 H           2.5814   -2.0548   -0.8718 H       1  UNL1        0.0316
     33 H           2.5834   -2.0394    0.8826 H       1  UNL1        0.0316
     34 H           7.6177   -1.6996    0.8508 H       1  UNL1        0.0598
     35 H           6.2041    0.3149   -0.9113 H       1  UNL1        0.0315
     36 H           6.2026    0.3215    0.8445 H       1  UNL1        0.0315
     37 H           1.6624    3.0890    0.8738 H       1  UNL1        0.0748
     38 H           1.6669    3.0871   -0.8768 H       1  UNL1        0.0748
     39 H           3.6899    0.1548    0.8732 H       1  UNL1        0.0293
     40 H           3.6732    0.1698   -0.8714 H       1  UNL1        0.0293
     41 H           5.1002   -1.8764    0.8508 H       1  UNL1        0.0594
     42 H           7.6375   -1.3439   -1.9799 H       1  UNL1        0.2098
     43 H           5.0125   -1.5242   -1.9811 H       1  UNL1        0.2098
     44 H           4.7115    1.8114    0.0006 H       1  UNL1        0.0621
     45 H           2.6618    5.4714    0.0003 H       1  UNL1        0.0621
     46 H           4.7745    6.6548    0.0005 H       1  UNL1        0.0618
     47 H           6.8252    2.9954    0.0009 H       1  UNL1        0.0618
     48 H           6.8562    5.4164    0.0012 H       1  UNL1        0.0618
@<TRIPOS>UNITY_ATOM_ATTR
18 1
charge -1
@<TRIPOS>BOND
     1     2     1   ar
     2     3     1   ar
     3     4     2   ar
     4     5     3   ar
     5     6    12    1
     6     7     6    1
     7     8     1    1
     8     9     5   ar
     9    10     2    1
    10    11     7   ar
    11    12    13    1
    12    13    19    1
    13    14     3    1
    14    15    10    1
    15    16     8    1
    16    17     9    1
    17    18     7   ar
    18    19    16    1
    19    20    15    1
    20    12    21    1
    21    19    22    1
    22    23    20   ar
    23    24    20   ar
    24    25    24   ar
    25    26    23   ar
    26    27    25   ar
    27     9     4   ar
    28    27    26   ar
    29     4    28    1
    30     5    29    1
    31     6    30    1
    32     6    31    1
    33     8    32    1
    34     8    33    1
    35    12    34    1
    36    13    35    1
    37    13    36    1
    38    15    37    1
    39    15    38    1
    40    16    39    1
    41    16    40    1
    42    19    41    1
    43    21    42    1
    44    22    43    1
    45    23    44    1
    46    24    45    1
    47    25    46    1
    48    26    47    1
    49    27    48    1
@<TRIPOS>MOLECULE
BDB50160720
 19 18 0 0 0
SMALL
GASTEIGER

@<TRIPOS>ATOM
      1 C           1.3688    0.7193    0.0400 C.2     1  UNL1        0.0445
      2 C           2.6467   -0.0878    0.0140 C.3     1  UNL1        0.0158
      3 C           3.9002    0.8175   -0.0360 C.3     1  UNL1        0.0734
      4 C           5.1545   -0.0879   -0.0198 C.3     1  UNL1        0.0158
      5 C           6.4323    0.7182    0.0380 C.2     1  UNL1        0.0445
      6 O           0.2833    0.1448   -0.0848 O.co2   1  UNL1       -0.5497
      7 O           1.3978    2.0635    0.2506 O.co2   1  UNL1       -0.5497
      8 O           7.5205    0.1394   -0.0288 O.co2   1  UNL1       -0.5497
      9 O           6.3982    2.0685    0.2040 O.co2   1  UNL1       -0.5497
     10 C           3.8842    1.6612   -1.3340 C.3     1  UNL1       -0.0354
     11 O           3.9136    1.6740    1.1100 O.3     1  UNL1       -0.3881
     12 H           2.6403   -0.7178   -0.8508 H       1  UNL1        0.0353
     13 H           2.6915   -0.6667    0.9128 H       1  UNL1        0.0353
     14 H           5.1619   -0.6843   -0.9081 H       1  UNL1        0.0353
     15 H           5.1095   -0.7004    0.8564 H       1  UNL1        0.0353
     16 H           3.8743    1.0097   -2.1827 H       1  UNL1        0.0257
     17 H           4.7572    2.2789   -1.3687 H       1  UNL1        0.0257
     18 H           3.0100    2.2781   -1.3477 H       1  UNL1        0.0257
     19 H           3.9235    1.1350    1.9164 H       1  UNL1        0.2102
@<TRIPOS>UNITY_ATOM_ATTR
7 1
charge -1
9 1
charge -1
@<TRIPOS>BOND
     1     1     2    1
     2     2     3    1
     3     3     4    1
     4     4     5    1
     5     1     6   ar
     6     1     7   ar
     7     5     8   ar
     8     5     9   ar
     9     3    10    1
    10     3    11    1
    11     2    12    1
    12     2    13    1
    13     4    14    1
    14     4    15    1
    15    10    16    1
    16    10    17    1
    17    10    18    1
    18    11    19    1
