@<TRIPOS>MOLECULE
BDB9012
 41 45 0 0 0
SMALL
GASTEIGER

@<TRIPOS>ATOM
      1 C          -0.0347   60.3504   71.7933 C.3     1  UNL1        0.0212
      2 C           0.5423   60.1545   73.1935 C.3     1  UNL1        0.0870
      3 N          -0.2190   60.7020   74.2585 N.pl3   1  UNL1       -0.3326
      4 H          -0.2379   61.6810   74.3609 H       1  UNL1        0.1468
      5 C          -1.2191   57.6720   78.2742 C.ar    1  UNL1        0.0806
      6 C           0.0867   57.4272   78.6337 C.ar    1  UNL1        0.0644
      7 C           1.0795   57.9740   77.8554 C.ar    1  UNL1        0.0232
      8 C           0.8057   58.7591   76.7454 C.ar    1  UNL1        0.0654
      9 C          -1.5154   58.4665   77.1795 C.ar    1  UNL1        0.2262
     10 C          -0.5378   59.0691   76.3646 C.ar    1  UNL1        0.0870
     11 C          -1.0215   59.8458   75.2683 C.ar    1  UNL1        0.0525
     12 C          -3.2857   59.2450   75.9275 C.ar    1  UNL1        0.1973
     13 C          -2.4160   59.8980   75.0632 C.ar    1  UNL1        0.0500
     14 C          -4.7933   59.3075   75.7884 C.3     1  UNL1        0.0964
     15 C          -3.0085   60.7072   73.9123 C.3     1  UNL1        0.0333
     16 C          -4.4722   61.0868   74.1505 C.3     1  UNL1        0.0055
     17 C          -5.2301   59.8090   74.4223 C.3     1  UNL1        0.0114
     18 N          -2.8123   58.5715   76.9448 N.ar    1  UNL1       -0.2066
     19 CL          0.4711   56.4503   79.9945 Cl      1  UNL1       -0.0820
     20 CL          2.2800   59.1925   75.9974 Cl      1  UNL1       -0.0820
     21 H          -3.4435   58.1278   77.5563 H       1  UNL1        0.4532
     22 C          -0.4142   61.8490   71.7584 C.3     1  UNL1        0.0018
     23 C           0.1156   62.5583   70.5186 C.3     1  UNL1        0.0006
     24 C           1.6620   62.5148   70.5405 C.3     1  UNL1        0.0096
     25 C           2.1309   61.8961   69.2202 C.3     1  UNL1        0.0850
     26 C           3.0117   62.8268   68.4365 C.2     1  UNL1        0.2225
     27 O           2.8774   62.9530   67.2131 O.2     1  UNL1       -0.2751
     28 N           3.9674   63.5682   69.1299 N.am    1  UNL1       -0.3040
     29 H           4.0661   63.4399   70.1010 H       1  UNL1        0.1494
     30 C           4.8080   64.5122   68.4580 C.3     1  UNL1        0.0941
     31 C           4.7399   65.8478   69.2286 C.3     1  UNL1        0.0491
     32 C           4.0292   66.8831   68.4105 C.ar    1  UNL1       -0.0021
     33 C           2.9152   67.6263   68.8010 C.ar    1  UNL1        0.0681
     34 C           3.4507   68.2398   66.7684 C.ar    1  UNL1        0.0563
     35 C           4.3574   67.2786   67.1282 C.ar    1  UNL1        0.0131
     36 C           5.3724   66.8571   66.2863 C.ar    1  UNL1        0.0012
     37 C           5.4319   67.4657   65.0330 C.ar    1  UNL1        0.0001
     38 C           4.5078   68.4481   64.6608 C.ar    1  UNL1        0.0015
     39 C           3.4942   68.8549   65.5284 C.ar    1  UNL1        0.0170
     40 N           2.6063   68.4288   67.7758 N.ar    1  UNL1       -0.3523
     41 H           1.8584   69.0691   67.7694 H       1  UNL1        0.1660
@<TRIPOS>UNITY_ATOM_ATTR
18 1
charge 1
@<TRIPOS>BOND
     1     5     6   ar
     2     5     9   ar
     3     6     7   ar
     4     7     8   ar
     5     8    10   ar
     6    18     9   ar
     7    10     9   ar
     8    10    11   ar
     9    18    12   ar
    10    11    13   ar
    11    14    12    1
    12    13    12   ar
    13    13    15    1
    14    14    17    1
    15    15    16    1
    16    16    17    1
    17    11     3    1
    18     3     2    1
    19     2     1    1
    20     1    22    1
    21    22    23    1
    22    23    24    1
    23    24    25    1
    24    25    26    1
    25    26    28   am
    26    26    27    2
    27    28    30    1
    28    30    31    1
    29    31    32    1
    30    33    32   ar
    31    32    35   ar
    32    33    40   ar
    33    34    40   ar
    34    34    39   ar
    35    35    36   ar
    36    36    37   ar
    37    37    38   ar
    38    38    39   ar
    39    35    34   ar
    40     6    19    1
    41     8    20    1
    42    18    21    1
    43     3     4    1
    44    28    29    1
    45    40    41    1
@<TRIPOS>MOLECULE
BDB50318731
 39 43 0 0 0
SMALL
GASTEIGER

@<TRIPOS>ATOM
      1 C          -0.8618   60.3038   73.9294 C.3     1  UNL1        0.0018
      2 C          -1.8702   60.8432   72.8937 C.3     1  UNL1        0.0212
      3 C          -1.0224   61.6950   71.9635 C.3     1  UNL1        0.0870
      4 N           0.4361   61.6461   72.1883 N.pl3   1  UNL1       -0.3326
      5 H           0.7788   61.8400   73.0906 H       1  UNL1        0.1468
      6 C           1.6213   57.6628   71.6350 C.ar    1  UNL1        0.0004
      7 C           2.5396   57.2934   70.6610 C.ar    1  UNL1        0.0061
      8 C           3.0856   58.2624   69.8304 C.ar    1  UNL1        0.0692
      9 C           1.2541   58.9959   71.7752 C.ar    1  UNL1        0.0071
     10 C           1.7975   59.9705   70.9441 C.ar    1  UNL1        0.0764
     11 C           2.7145   59.5935   69.9716 C.ar    1  UNL1        0.2245
     12 N           3.2548   60.4946   69.1685 N.ar    1  UNL1       -0.2066
     13 C           1.4358   61.3091   71.0877 C.ar    1  UNL1        0.0517
     14 C           2.0293   62.2377   70.2079 C.ar    1  UNL1        0.0500
     15 C           2.9431   61.7780   69.2558 C.ar    1  UNL1        0.1973
     16 C           3.6449   62.7136   68.2912 C.3     1  UNL1        0.0964
     17 C           2.9617   64.0706   68.1847 C.3     1  UNL1        0.0114
     18 C           2.7804   64.5899   69.5849 C.3     1  UNL1        0.0055
     19 C           1.7085   63.7333   70.2312 C.3     1  UNL1        0.0333
     20 H           3.9049   60.2035   68.4888 H       1  UNL1        0.4532
     21 C          -1.5234   60.0328   75.2748 C.3     1  UNL1        0.0018
     22 C          -0.4236   59.7849   76.3260 C.3     1  UNL1        0.0212
     23 C           0.4977   58.6852   75.7973 C.3     1  UNL1        0.0894
     24 N           0.4657   57.5318   76.6433 N.am    1  UNL1       -0.3043
     25 C           1.1207   56.3801   76.2217 C.2     1  UNL1        0.2228
     26 O           1.7254   56.3865   75.1440 O.2     1  UNL1       -0.2751
     27 H          -0.0097   57.5531   77.5052 H       1  UNL1        0.1494
     28 C           1.0980   55.1354   77.0508 C.3     1  UNL1        0.0898
     29 C          -0.3697   54.7152   77.2521 C.3     1  UNL1        0.0375
     30 C          -0.7957   53.8069   76.1424 C.ar    1  UNL1       -0.0033
     31 N          -1.8537   52.9881   74.4031 N.ar    1  UNL1       -0.3523
     32 C          -1.8045   54.0533   75.2110 C.ar    1  UNL1        0.0681
     33 C          -0.9441   52.0900   74.7642 C.ar    1  UNL1        0.0563
     34 C          -0.2610   52.5676   75.8510 C.ar    1  UNL1        0.0131
     35 C           0.7570   51.8584   76.4649 C.ar    1  UNL1        0.0012
     36 C           1.0622   50.6127   75.9177 C.ar    1  UNL1        0.0001
     37 C           0.3673   50.1202   74.8075 C.ar    1  UNL1        0.0015
     38 C          -0.6548   50.8556   74.2076 C.ar    1  UNL1        0.0170
     39 H          -2.4761   52.8844   73.6475 H       1  UNL1        0.1660
@<TRIPOS>UNITY_ATOM_ATTR
12 1
charge 1
@<TRIPOS>BOND
     1     8    11   ar
     2    32    30   ar
     3    10     9   ar
     4     9     6   ar
     5    28    29    1
     6    10    11   ar
     7    33    34   ar
     8    11    12   ar
     9    12    15   ar
    10    25    26    2
    11    14    13   ar
    12    13    10   ar
    13    14    15   ar
    14    34    35   ar
    15    29    30    1
    16    35    36   ar
    17    30    34   ar
    18    36    37   ar
    19    24    25   am
    20    14    19    1
    21    15    16    1
    22    16    17    1
    23    17    18    1
    24    18    19    1
    25    37    38   ar
    26    13     4    1
    27    38    33   ar
    28     4     3    1
    29    25    28    1
    30     3     2    1
    31    33    31   ar
    32     2     1    1
    33     6     7   ar
    34     1    21    1
    35    31    32   ar
    36    21    22    1
    37     7     8   ar
    38    22    23    1
    39    23    24    1
    40    24    27    1
    41    31    39    1
    42    12    20    1
    43     4     5    1
@<TRIPOS>MOLECULE
BDB8965
 43 48 0 0 0
SMALL
GASTEIGER

@<TRIPOS>ATOM
      1 N          -3.1654   59.9144   74.5140 N.4     1  UNL1        0.2805
      2 C          -4.0883   60.5750   75.4461 C.3     1  UNL1        0.1672
      3 H          -3.6417   59.1214   74.0844 H       1  UNL1        0.2069
      4 C          -2.7475   60.8470   73.5086 C.3     1  UNL1        0.1073
      5 C          -1.2290   60.8406   73.4061 C.3     1  UNL1        0.0820
      6 C          -0.9476   61.6462   72.1778 C.3     1  UNL1        0.0932
      7 N           0.4271   62.1196   72.0764 N.pl3   1  UNL1       -0.3324
      8 H           0.7256   62.8456   72.6706 H       1  UNL1        0.1468
      9 C           2.9474   58.3874   69.9301 C.ar    1  UNL1        0.0692
     10 C           1.1132   59.1926   71.8028 C.ar    1  UNL1        0.0071
     11 C           1.4217   57.8469   71.6907 C.ar    1  UNL1        0.0004
     12 C           2.3479   57.4365   70.7464 C.ar    1  UNL1        0.0061
     13 C           1.7034   60.1670   70.9931 C.ar    1  UNL1        0.0764
     14 C           2.6300   59.7315   70.0522 C.ar    1  UNL1        0.2245
     15 C           1.4082   61.5335   71.0907 C.ar    1  UNL1        0.0517
     16 C           2.0696   62.4038   70.2177 C.ar    1  UNL1        0.0500
     17 C           2.9849   61.8906   69.2989 C.ar    1  UNL1        0.1973
     18 C           3.7192   62.7799   68.3239 C.3     1  UNL1        0.0964
     19 C           3.6956   64.2417   68.7605 C.3     1  UNL1        0.0114
     20 C           2.2498   64.6186   69.0162 C.3     1  UNL1        0.0055
     21 C           1.7973   63.8952   70.2860 C.3     1  UNL1        0.0333
     22 N           3.2328   60.5953   69.2434 N.ar    1  UNL1       -0.2066
     23 H           3.8828   60.2602   68.5842 H       1  UNL1        0.4532
     24 C          -2.0013   59.4706   75.2238 C.3     1  UNL1        0.1073
     25 C          -2.3036   59.4185   76.7143 C.3     1  UNL1        0.0820
     26 C          -1.1989   60.2126   77.3365 C.3     1  UNL1        0.0932
     27 N          -0.3156   59.4313   78.1931 N.pl3   1  UNL1       -0.3324
     28 H          -0.7119   58.8595   78.8897 H       1  UNL1        0.1468
     29 C           1.1860   59.4693   78.0482 C.ar    1  UNL1        0.0517
     30 C           3.1881   58.4885   77.1247 C.ar    1  UNL1        0.1973
     31 C           1.8018   58.4782   77.2766 C.ar    1  UNL1        0.0500
     32 C           3.9084   57.4414   76.3085 C.3     1  UNL1        0.0964
     33 C           0.9589   57.4101   76.6041 C.3     1  UNL1        0.0333
     34 C           1.7958   56.2005   76.1842 C.3     1  UNL1        0.0055
     35 C           2.9622   56.7098   75.3613 C.3     1  UNL1        0.0114
     36 C           2.0089   60.4368   78.6403 C.ar    1  UNL1        0.0764
     37 C           3.3844   60.3788   78.4451 C.ar    1  UNL1        0.2245
     38 C           4.2282   61.3179   79.0181 C.ar    1  UNL1        0.0692
     39 C           3.7216   62.3456   79.8036 C.ar    1  UNL1        0.0061
     40 C           2.3545   62.4243   80.0106 C.ar    1  UNL1        0.0004
     41 C           1.5222   61.4797   79.4331 C.ar    1  UNL1        0.0071
     42 N           3.9246   59.4187   77.7033 N.ar    1  UNL1       -0.2066
     43 H           4.9013   59.4002   77.5817 H       1  UNL1        0.4532
@<TRIPOS>UNITY_ATOM_ATTR
1 1
charge 1
22 1
charge 1
42 1
charge 1
@<TRIPOS>BOND
     1     9    14   ar
     2     9    12   ar
     3    13    10   ar
     4    10    11   ar
     5    11    12   ar
     6    15    13   ar
     7    13    14   ar
     8    22    14   ar
     9    22    17   ar
    10    16    15   ar
    11    21    16    1
    12    16    17   ar
    13    18    17    1
    14    18    19    1
    15    19    20    1
    16    20    21    1
    17    15     7    1
    18     7     6    1
    19     6     5    1
    20     5     4    1
    21     4     1    1
    22     1    24    1
    23     1     2    1
    24    24    25    1
    25    25    26    1
    26    26    27    1
    27    27    29    1
    28    36    29   ar
    29    29    31   ar
    30    42    37   ar
    31    42    30   ar
    32    32    30    1
    33    30    31   ar
    34    31    33    1
    35    32    35    1
    36    33    34    1
    37    34    35    1
    38    41    36   ar
    39    36    37   ar
    40    38    37   ar
    41    38    39   ar
    42    39    40   ar
    43    40    41   ar
    44    22    23    1
    45     7     8    1
    46     1     3    1
    47    27    28    1
    48    42    43    1
@<TRIPOS>MOLECULE
BDB9054
 43 48 0 0 0
SMALL
GASTEIGER

@<TRIPOS>ATOM
      1 C          -1.8034   60.0748   75.2069 C.3     1  UNL1        0.0001
      2 C          -3.0583   59.3678   74.7498 C.3     1  UNL1        0.0017
      3 C          -3.6945   58.6162   75.9087 C.3     1  UNL1        0.0212
      4 C          -3.6773   57.1780   75.4703 C.3     1  UNL1        0.0870
      5 N          -3.2693   56.2469   76.5197 N.pl3   1  UNL1       -0.3326
      6 H          -3.8597   56.1248   77.2980 H       1  UNL1        0.1468
      7 C          -0.5551   57.2735   77.3265 C.ar    1  UNL1        0.0080
      8 C           0.6852   57.7635   77.7029 C.ar    1  UNL1        0.0118
      9 C           1.7975   56.9462   77.5987 C.ar    1  UNL1        0.0636
     10 C           1.6502   55.6516   77.1186 C.ar    1  UNL1        0.0806
     11 C          -0.7287   55.9783   76.8414 C.ar    1  UNL1        0.0764
     12 C           0.4003   55.1717   76.7437 C.ar    1  UNL1        0.2253
     13 C          -1.9779   55.4634   76.4595 C.ar    1  UNL1        0.0517
     14 N           0.3126   53.9290   76.2930 N.ar    1  UNL1       -0.2066
     15 C          -0.8443   53.4021   75.9237 C.ar    1  UNL1        0.1973
     16 C          -0.8329   51.9787   75.4250 C.3     1  UNL1        0.0964
     17 C          -2.0712   51.6701   74.5888 C.3     1  UNL1        0.0114
     18 C          -3.2801   52.0178   75.4313 C.3     1  UNL1        0.0055
     19 C          -3.3493   53.5412   75.5694 C.3     1  UNL1        0.0333
     20 C          -2.0217   54.1459   75.9983 C.ar    1  UNL1        0.0500
     21 CL          3.3433   57.5370   78.0637 Cl      1  UNL1       -0.0820
     22 H           1.1294   53.3829   76.2310 H       1  UNL1        0.4532
     23 C          -1.0397   60.4499   73.9573 C.3     1  UNL1        0.0017
     24 C          -1.9927   60.9752   72.8955 C.3     1  UNL1        0.0212
     25 C          -1.1081   61.7159   71.9303 C.3     1  UNL1        0.0870
     26 N           0.3153   61.6040   72.2410 N.pl3   1  UNL1       -0.3326
     27 H           0.6116   61.7781   73.1636 H       1  UNL1        0.1468
     28 C           1.3518   61.2323   71.2061 C.ar    1  UNL1        0.0517
     29 C           1.9682   62.1542   70.3453 C.ar    1  UNL1        0.0764
     30 C           2.9180   61.7054   69.4335 C.ar    1  UNL1        0.2253
     31 C           3.5446   62.5935   68.5665 C.ar    1  UNL1        0.0806
     32 C           3.2354   63.9469   68.5930 C.ar    1  UNL1        0.0636
     33 C           2.2918   64.4115   69.4930 C.ar    1  UNL1        0.0118
     34 C           1.6737   63.5166   70.3518 C.ar    1  UNL1        0.0080
     35 N           3.2445   60.4232   69.3648 N.ar    1  UNL1       -0.2066
     36 C           1.7265   59.8917   71.0943 C.ar    1  UNL1        0.0500
     37 C           1.0927   58.8535   71.9993 C.3     1  UNL1        0.0333
     38 C           1.9478   57.5907   72.0943 C.3     1  UNL1        0.0055
     39 C           2.1875   57.0996   70.6822 C.3     1  UNL1        0.0114
     40 C           3.1310   58.0824   69.9880 C.3     1  UNL1        0.0964
     41 C           2.6830   59.5180   70.1507 C.ar    1  UNL1        0.1973
     42 CL          4.0101   65.0428   67.5189 Cl      1  UNL1       -0.0820
     43 H           3.9228   60.1359   68.7118 H       1  UNL1        0.4532
@<TRIPOS>UNITY_ATOM_ATTR
14 1
charge 1
35 1
charge 1
@<TRIPOS>BOND
     1     7     8   ar
     2     7    11   ar
     3     8     9   ar
     4     9    10   ar
     5    10    12   ar
     6    13    11   ar
     7    12    11   ar
     8    12    14   ar
     9    13    20   ar
    10    14    15   ar
    11    13     5    1
    12     5     4    1
    13     4     3    1
    14     3     2    1
    15     2     1    1
    16     1    23    1
    17    23    24    1
    18    24    25    1
    19    25    26    1
    20    26    28    1
    21    29    28   ar
    22    28    36   ar
    23    35    30   ar
    24    35    41   ar
    25    34    29   ar
    26    30    29   ar
    27    31    30   ar
    28    31    32   ar
    29    32    33   ar
    30    33    34   ar
    31    36    37    1
    32    37    38    1
    33    38    39    1
    34    39    40    1
    35    40    41    1
    36    36    41   ar
    37    15    16    1
    38    16    17    1
    39    17    18    1
    40    18    19    1
    41    19    20    1
    42    15    20   ar
    43     9    21    1
    44    32    42    1
    45    14    22    1
    46     5     6    1
    47    26    27    1
    48    35    43    1
@<TRIPOS>MOLECULE
BDB9035
 40 44 0 0 0
SMALL
GASTEIGER

@<TRIPOS>ATOM
      1 C          -0.1826   60.6765   72.0965 C.3     1  UNL1        0.0017
      2 C           0.7863   61.8140   71.6433 C.3     1  UNL1        0.0001
      3 C           1.6546   61.3349   70.4394 C.3     1  UNL1        0.0017
      4 C           1.4640   62.2659   69.2006 C.3     1  UNL1        0.0212
      5 C           2.7340   62.2107   68.2970 C.3     1  UNL1        0.0894
      6 C           4.4126   63.8821   69.0426 C.2     1  UNL1        0.2270
      7 O           4.7933   63.0673   69.8895 O.2     1  UNL1       -0.2747
      8 N           3.3530   63.5194   68.1789 N.am    1  UNL1       -0.3041
      9 H           3.0349   64.1544   67.4971 H       1  UNL1        0.1494
     10 C           5.0579   65.2713   68.9055 C.3     1  UNL1        0.1128
     11 C           5.1819   66.9567   66.2478 C.ar    1  UNL1        0.0012
     12 C           5.0329   67.8245   65.1670 C.ar    1  UNL1        0.0001
     13 C           4.0095   68.7778   65.1432 C.ar    1  UNL1        0.0015
     14 C           3.1035   68.8941   66.1972 C.ar    1  UNL1        0.0170
     15 C           4.2691   67.0945   67.2792 C.ar    1  UNL1        0.0135
     16 C           3.2640   68.0253   67.2639 C.ar    1  UNL1        0.0563
     17 C           3.0524   66.9515   69.1370 C.ar    1  UNL1        0.0685
     18 N           2.5417   67.9324   68.3786 N.ar    1  UNL1       -0.3522
     19 C           4.1326   66.4201   68.4604 C.ar    1  UNL1        0.0053
     20 H           1.7634   68.4902   68.6076 H       1  UNL1        0.1660
     21 C          -1.4866   61.2779   72.6982 C.3     1  UNL1        0.0212
     22 C          -2.2315   60.2211   73.5662 C.3     1  UNL1        0.0870
     23 N          -2.1246   60.5876   75.0009 N.pl3   1  UNL1       -0.3326
     24 H          -2.2050   61.5069   75.3441 H       1  UNL1        0.1468
     25 C          -1.8884   59.4306   75.8306 C.ar    1  UNL1        0.0517
     26 C          -2.6822   57.5048   77.0082 C.ar    1  UNL1        0.2253
     27 C          -2.9391   58.6099   76.2086 C.ar    1  UNL1        0.0764
     28 C          -5.2781   58.0557   76.1778 C.ar    1  UNL1        0.0118
     29 C          -4.2348   58.8888   75.7924 C.ar    1  UNL1        0.0080
     30 C          -3.7258   56.6723   77.3923 C.ar    1  UNL1        0.0806
     31 C          -5.0230   56.9475   76.9770 C.ar    1  UNL1        0.0636
     32 C          -0.4130   58.0020   77.0680 C.ar    1  UNL1        0.1973
     33 C          -0.6065   59.1242   76.2630 C.ar    1  UNL1        0.0500
     34 C           0.5344   60.0232   75.8569 C.3     1  UNL1        0.0333
     35 C           1.8843   59.3240   76.0424 C.3     1  UNL1        0.0055
     36 C           1.9402   58.7826   77.4628 C.3     1  UNL1        0.0114
     37 C           0.9584   57.6116   77.5602 C.3     1  UNL1        0.0964
     38 N          -1.4449   57.2364   77.4083 N.ar    1  UNL1       -0.2066
     39 CL         -6.3110   55.9162   77.4522 Cl      1  UNL1       -0.0820
     40 H          -1.2870   56.4463   77.9740 H       1  UNL1        0.4532
@<TRIPOS>UNITY_ATOM_ATTR
38 1
charge 1
@<TRIPOS>BOND
     1    15    11   ar
     2    11    12   ar
     3    12    13   ar
     4    13    14   ar
     5    14    16   ar
     6    15    19   ar
     7    15    16   ar
     8    16    18   ar
     9    17    19   ar
    10    18    17   ar
    11    19    10    1
    12    10     6    1
    13     6     8   am
    14     4     3    1
    15     3     2    1
    16     2     1    1
    17     8     5    1
    18     5     4    1
    19     1    21    1
    20    21    22    1
    21    22    23    1
    22    23    25    1
    23    27    25   ar
    24    25    33   ar
    25    32    38   ar
    26    38    26   ar
    27    26    30   ar
    28    27    26   ar
    29    29    27   ar
    30    28    29   ar
    31    28    31   ar
    32    30    31   ar
    33    37    32    1
    34    33    32   ar
    35    33    34    1
    36    34    35    1
    37    35    36    1
    38    36    37    1
    39    31    39    1
    40     6     7    2
    41    18    20    1
    42    23    24    1
    43    38    40    1
    44     8     9    1
@<TRIPOS>MOLECULE
BDB50271325
 45 50 0 0 0
SMALL
GASTEIGER

@<TRIPOS>ATOM
      1 N          -1.6478   59.8943   74.9682 N.am    1  UNL1       -0.2795
      2 C          -0.4659   59.7925   75.7462 C.2     1  UNL1        0.2261
      3 O          -0.5355   59.5411   76.9535 O.2     1  UNL1       -0.2749
      4 C           0.8935   59.9886   75.1145 C.3     1  UNL1        0.0948
      5 C          -2.9486   59.8978   75.5956 C.3     1  UNL1        0.0935
      6 C          -3.8771   58.9970   74.7700 C.3     1  UNL1        0.0233
      7 C          -5.2850   59.5939   74.5875 C.3     1  UNL1        0.0229
      8 C          -5.1117   61.0668   74.9492 C.3     1  UNL1        0.0871
      9 N          -6.0430   61.5819   75.9740 N.pl3   1  UNL1       -0.3326
     10 H          -5.6854   61.8027   76.8642 H       1  UNL1        0.1468
     11 C          -7.3488   65.1984   74.3210 C.ar    1  UNL1        0.0004
     12 C          -8.6936   65.4705   74.1075 C.ar    1  UNL1        0.0061
     13 C          -9.6463   64.5094   74.4180 C.ar    1  UNL1        0.0692
     14 C          -6.9637   63.9728   74.8503 C.ar    1  UNL1        0.0071
     15 C          -7.9144   63.0060   75.1623 C.ar    1  UNL1        0.0764
     16 C          -9.2567   63.2826   74.9400 C.ar    1  UNL1        0.2245
     17 N         -10.1861   62.3860   75.2272 N.ar    1  UNL1       -0.2066
     18 C          -7.5302   61.7873   75.7178 C.ar    1  UNL1        0.0517
     19 C          -8.5489   60.8565   76.0049 C.ar    1  UNL1        0.0500
     20 C          -9.8761   61.2039   75.7366 C.ar    1  UNL1        0.1973
     21 C         -11.0320   60.2707   76.0364 C.3     1  UNL1        0.0964
     22 C         -10.5857   58.8259   76.2175 C.3     1  UNL1        0.0114
     23 C          -9.4749   58.8266   77.2344 C.3     1  UNL1        0.0055
     24 C          -8.2660   59.4643   76.5718 C.3     1  UNL1        0.0333
     25 H         -11.1313   62.6031   75.0580 H       1  UNL1        0.4532
     26 C          -1.5482   60.0740   73.5678 C.3     1  UNL1        0.0951
     27 C          -1.7907   61.5453   73.1776 C.3     1  UNL1        0.0427
     28 C          -1.0083   61.7066   71.9024 C.3     1  UNL1        0.0888
     29 N           0.4336   61.8950   72.0696 N.pl3   1  UNL1       -0.3325
     30 H           0.7711   62.2765   72.9121 H       1  UNL1        0.1468
     31 C           1.5315   57.8870   71.6201 C.ar    1  UNL1        0.0004
     32 C           2.4673   57.4828   70.6773 C.ar    1  UNL1        0.0061
     33 C           3.0418   58.4231   69.8324 C.ar    1  UNL1        0.0692
     34 C           1.1803   59.2276   71.7182 C.ar    1  UNL1        0.0071
     35 C           1.7525   60.1731   70.8726 C.ar    1  UNL1        0.0764
     36 C           2.6831   59.7613   69.9289 C.ar    1  UNL1        0.2245
     37 N           3.2474   60.6365   69.1126 N.ar    1  UNL1       -0.2066
     38 C           1.4196   61.5208   70.9860 C.ar    1  UNL1        0.0517
     39 C           2.0359   62.4220   70.0936 C.ar    1  UNL1        0.0500
     40 C           2.9524   61.9261   69.1636 C.ar    1  UNL1        0.1973
     41 C           3.6786   62.8298   68.1876 C.3     1  UNL1        0.0964
     42 C           3.0053   64.1880   68.0290 C.3     1  UNL1        0.0114
     43 C           2.8099   64.7535   69.4090 C.3     1  UNL1        0.0055
     44 C           1.7277   63.9241   70.0700 C.3     1  UNL1        0.0333
     45 H           3.9036   60.3206   68.4503 H       1  UNL1        0.4532
@<TRIPOS>UNITY_ATOM_ATTR
17 1
charge 1
37 1
charge 1
@<TRIPOS>BOND
     1    19    20   ar
     2     5     1    1
     3    15    14   ar
     4     1    26    1
     5    14    11   ar
     6    26    27    1
     7    27    28    1
     8    12    13   ar
     9    28    29    1
    10    15    16   ar
    11    13    16   ar
    12    31    32   ar
    13    19    24    1
    14    32    33   ar
    15    33    36   ar
    16    20    21    1
    17    35    34   ar
    18    34    31   ar
    19    21    22    1
    20    22    23    1
    21    35    36   ar
    22    23    24    1
    23    36    37   ar
    24    37    40   ar
    25    16    17   ar
    26    39    38   ar
    27    38    35   ar
    28    39    40   ar
    29    18     9    1
    30    17    20   ar
    31     9     8    1
    32    11    12   ar
    33     8     7    1
    34    19    18   ar
    35    39    44    1
    36    40    41    1
    37    41    42    1
    38    42    43    1
    39    43    44    1
    40    38    29    1
    41     7     6    1
    42     1     2   am
    43    18    15   ar
    44     2     3    2
    45     6     5    1
    46     2     4    1
    47    17    25    1
    48     9    10    1
    49    29    30    1
    50    37    45    1
@<TRIPOS>MOLECULE
BDB50154767
 30 34 0 0 0
SMALL
GASTEIGER

@<TRIPOS>ATOM
      1 C           3.3594   63.5495   68.4631 C.3     1  UNL1        0.0493
      2 C           2.0301   61.9455   69.9622 C.ar    1  UNL1        0.0536
      3 N           1.2097   63.9422   69.7343 N.ar    1  UNL1       -0.0814
      4 N           0.7102   58.7317   72.0771 N.am    1  UNL1       -0.2838
      5 C           0.8690   62.1069   70.6685 C.ar    1  UNL1        0.1777
      6 C           1.0401   59.8914   71.4108 C.ar    1  UNL1        0.0499
      7 O           0.4361   63.3170   70.4878 O.2     1  UNL1       -0.3537
      8 C           1.7137   57.7926   71.7755 C.2     1  UNL1        0.2306
      9 C           2.2179   59.7354   70.6914 C.ar    1  UNL1        0.0007
     10 C           2.7633   60.7666   69.9322 C.ar    1  UNL1        0.0018
     11 C           2.2281   63.1639   69.3607 C.ar    1  UNL1        0.1005
     12 C           0.3200   61.0834   71.4272 C.ar    1  UNL1        0.0546
     13 C           2.7929   58.3509   70.8455 C.3     1  UNL1        0.1129
     14 O           1.7241   56.6384   72.2147 O.2     1  UNL1       -0.2744
     15 H          -0.0754   58.5878   72.6528 H       1  UNL1        0.1549
     16 C           4.3545   64.4377   69.2336 C.3     1  UNL1        0.0068
     17 N           3.7350   67.6257   66.3914 N.4     1  UNL1        0.2792
     18 C           5.0079   66.8818   66.3060 C.3     1  UNL1        0.1057
     19 C           3.3948   67.9022   67.8018 C.3     1  UNL1        0.1057
     20 C           4.5224   65.7820   68.4979 C.3     1  UNL1        0.0122
     21 C           4.8709   65.5279   67.0260 C.3     1  UNL1        0.0611
     22 C           3.2129   66.5777   68.5658 C.3     1  UNL1        0.0611
     23 H           2.9929   67.0635   65.9746 H       1  UNL1        0.2070
     24 C           3.8783   68.9289   65.6570 C.3     1  UNL1        0.1328
     25 C           4.1271   68.8822   64.1306 C.ar    1  UNL1        0.0326
     26 C           3.1368   68.5455   63.2152 C.ar    1  UNL1        0.0014
     27 C           5.4073   69.1956   63.6823 C.ar    1  UNL1        0.0014
     28 C           3.4238   68.5216   61.8548 C.ar    1  UNL1       -0.0001
     29 C           5.6941   69.1718   62.3231 C.ar    1  UNL1       -0.0001
     30 C           4.7019   68.8347   61.4093 C.ar    1  UNL1       -0.0000
@<TRIPOS>UNITY_ATOM_ATTR
17 1
charge 1
@<TRIPOS>BOND
     1     3    11   ar
     2     4     6    1
     3     5     2   ar
     4     6     9   ar
     5     7     5   ar
     6     8    13    1
     7     9    10   ar
     8    10     2   ar
     9    11     2   ar
    10    12     5   ar
    11    17    19    1
    12    13     9    1
    13    14     8    2
    14     1    11    1
    15    24    17    1
    16    18    21    1
    17    19    22    1
    18    16     1    1
    19    25    24    1
    20    20    16    1
    21    21    20    1
    22    22    20    1
    23    26    25   ar
    24    27    25   ar
    25    28    26   ar
    26    29    27   ar
    27    30    29   ar
    28    12     6   ar
    29     7     3   ar
    30     4     8   am
    31    18    17    1
    32    28    30   ar
    33     4    15    1
    34    17    23    1
@<TRIPOS>MOLECULE
BDB50032161
 30 34 0 0 0
SMALL
GASTEIGER

@<TRIPOS>ATOM
      1 C           0.0767   62.0334   71.4600 C.3     1  UNL1        0.0493
      2 N          -3.7413   59.3410   76.0481 N.am    1  UNL1       -0.2568
      3 C          -2.7194   59.7973   75.2704 C.ar    1  UNL1        0.0535
      4 C          -4.9546   59.6876   75.4582 C.2     1  UNL1        0.2338
      5 C          -3.2320   60.4510   74.1570 C.ar    1  UNL1        0.0009
      6 C          -1.0517   60.8679   73.4459 C.ar    1  UNL1        0.0536
      7 N           1.1187   60.8661   73.4477 N.ar    1  UNL1       -0.0814
      8 C          -0.5395   60.2248   74.5409 C.ar    1  UNL1        0.1777
      9 C          -1.3556   59.6566   75.5093 C.ar    1  UNL1        0.0548
     10 O           0.7555   60.2616   74.4777 O.2     1  UNL1       -0.3537
     11 C          -2.4070   61.0179   73.1911 C.ar    1  UNL1        0.0019
     12 C           0.0585   61.2767   72.7489 C.ar    1  UNL1        0.1005
     13 C          -4.7509   60.4561   74.1491 C.3     1  UNL1        0.1131
     14 O          -6.0611   59.4102   75.9309 O.2     1  UNL1       -0.2742
     15 C          -3.5940   58.6209   77.2743 C.3     1  UNL1        0.1200
     16 C           0.9351   61.2792   70.4269 C.3     1  UNL1        0.0068
     17 N           3.3681   64.2452   68.4501 N.4     1  UNL1        0.2792
     18 C           3.0703   64.4597   69.8806 C.3     1  UNL1        0.1057
     19 C           3.6951   62.8269   68.2000 C.3     1  UNL1        0.1057
     20 C           2.1578   62.1380   70.0472 C.3     1  UNL1        0.0122
     21 C           2.4891   61.9412   68.5627 C.3     1  UNL1        0.0611
     22 C           1.8472   63.6198   70.2925 C.3     1  UNL1        0.0611
     23 H           2.5488   64.4997   67.8984 H       1  UNL1        0.2070
     24 C           4.5446   65.0955   68.0612 C.3     1  UNL1        0.1328
     25 C           4.2706   66.4202   67.3102 C.ar    1  UNL1        0.0326
     26 C           3.3292   67.3489   67.7386 C.ar    1  UNL1        0.0014
     27 C           5.0132   66.6671   66.1589 C.ar    1  UNL1        0.0014
     28 C           4.8136   67.8390   65.4400 C.ar    1  UNL1       -0.0001
     29 C           3.1295   68.5219   67.0190 C.ar    1  UNL1       -0.0001
     30 C           3.8716   68.7666   65.8703 C.ar    1  UNL1       -0.0000
@<TRIPOS>UNITY_ATOM_ATTR
17 1
charge 1
@<TRIPOS>BOND
     1     3     2    1
     2     4     2   am
     3     5     3   ar
     4     6     8   ar
     5     7    10   ar
     6     8     9   ar
     7     9     3   ar
     8    10     8   ar
     9    11     5   ar
    10    12     6   ar
    11    13     4    1
    12    17    18    1
    13    14     4    2
    14     1    12    1
    15    24    17    1
    16    18    22    1
    17    19    21    1
    18    15     2    1
    19    16     1    1
    20    25    24    1
    21    20    16    1
    22    21    20    1
    23    22    20    1
    24    26    25   ar
    25    27    25   ar
    26    28    27   ar
    27    29    26   ar
    28    30    28   ar
    29    13     5    1
    30    11     6   ar
    31    12     7   ar
    32    19    17    1
    33    29    30   ar
    34    17    23    1
@<TRIPOS>MOLECULE
BDB50322767
 42 46 0 0 0
SMALL
GASTEIGER

@<TRIPOS>ATOM
      1 C           0.6969   62.1617   70.6710 C.3     1  UNL1        0.0002
      2 C           2.1471   61.7557   70.2900 C.3     1  UNL1        0.0061
      3 C           2.3801   61.9467   68.7658 C.3     1  UNL1        0.0608
      4 C           3.5564   62.9305   68.5320 C.3     1  UNL1        0.1026
      5 N           3.9347   63.5988   69.7982 N.4     1  UNL1        0.2578
      6 H           4.2886   62.9050   70.4569 H       1  UNL1        0.2039
      7 H           3.1173   64.0597   70.1980 H       1  UNL1        0.2039
      8 C           4.9852   64.6031   69.5277 C.3     1  UNL1        0.1328
      9 N           5.1279   67.4368   65.5833 N.ar    1  UNL1       -0.2466
     10 C           4.6762   68.4281   64.8223 C.ar    1  UNL1        0.0595
     11 C           3.5651   69.1684   65.2087 C.ar    1  UNL1        0.0148
     12 C           2.9266   68.8634   66.4018 C.ar    1  UNL1        0.0028
     13 C           3.4251   67.8226   67.1711 C.ar    1  UNL1        0.0206
     14 C           2.8139   67.4861   68.3725 C.ar    1  UNL1        0.0016
     15 C           3.3190   66.4422   69.1375 C.ar    1  UNL1        0.0045
     16 C           4.4336   65.7373   68.6999 C.ar    1  UNL1        0.0677
     17 C           5.0435   66.0755   67.4977 C.ar    1  UNL1        0.1526
     18 C           4.5397   67.1192   66.7314 C.ar    1  UNL1        0.1143
     19 O           6.1573   65.3699   67.0620 O.3     1  UNL1       -0.5041
     20 C           5.3713   68.7512   63.5351 C.3     1  UNL1        0.0521
     21 H           6.4974   64.6659   67.5784 H       1  UNL1        0.2922
     22 C           0.3878   61.7289   72.1306 C.3     1  UNL1        0.0001
     23 C          -0.5553   60.4946   72.1398 C.3     1  UNL1        0.0017
     24 C          -1.1312   60.2804   73.5644 C.3     1  UNL1        0.0212
     25 C          -2.5784   60.8299   73.6520 C.3     1  UNL1        0.0870
     26 N          -2.9745   60.9562   75.0721 N.pl3   1  UNL1       -0.3326
     27 H          -2.5081   61.5185   75.7321 H       1  UNL1        0.1468
     28 C          -2.5919   58.2773   75.9535 C.3     1  UNL1        0.0333
     29 C          -2.5987   56.9785   76.7685 C.3     1  UNL1        0.0055
     30 C          -3.6622   56.0556   76.1968 C.3     1  UNL1        0.0114
     31 C          -5.0301   56.6559   76.5320 C.3     1  UNL1        0.0964
     32 C          -5.1252   58.0852   76.0628 C.ar    1  UNL1        0.1973
     33 N          -6.3331   58.6195   75.9117 N.ar    1  UNL1       -0.2066
     34 C          -6.5026   59.8718   75.5045 C.ar    1  UNL1        0.2245
     35 C          -7.7868   60.3844   75.3659 C.ar    1  UNL1        0.0692
     36 C          -7.9700   61.6950   74.9418 C.ar    1  UNL1        0.0061
     37 C          -6.8698   62.4941   74.6541 C.ar    1  UNL1        0.0004
     38 C          -5.5851   61.9822   74.7909 C.ar    1  UNL1        0.0071
     39 C          -5.4057   60.6726   75.2171 C.ar    1  UNL1        0.0764
     40 C          -4.1300   60.1503   75.3621 C.ar    1  UNL1        0.0517
     41 C          -3.9840   58.8409   75.7950 C.ar    1  UNL1        0.0500
     42 H          -7.1260   58.0700   76.1078 H       1  UNL1        0.4532
@<TRIPOS>UNITY_ATOM_ATTR
5 1
charge 1
33 1
charge 1
@<TRIPOS>BOND
     1     9    10   ar
     2    10    11   ar
     3    11    12   ar
     4    12    13   ar
     5    13    14   ar
     6    14    15   ar
     7    15    16   ar
     8    16    17   ar
     9    17    18   ar
    10     9    18   ar
    11    13    18   ar
    12    17    19    1
    13     4     3    1
    14     3     2    1
    15     2     1    1
    16     1    22    1
    17    22    23    1
    18    23    24    1
    19    24    25    1
    20    28    29    1
    21    29    30    1
    22    30    31    1
    23    31    32    1
    24    32    33   ar
    25    33    34   ar
    26    34    35   ar
    27    35    36   ar
    28    36    37   ar
    29    37    38   ar
    30    38    39   ar
    31    34    39   ar
    32    39    40   ar
    33    40    41   ar
    34    32    41   ar
    35    28    41    1
    36    26    40    1
    37    25    26    1
    38     5     4    1
    39     8     5    1
    40    16     8    1
    41    10    20    1
    42    19    21    1
    43     5     6    1
    44     5     7    1
    45    26    27    1
    46    33    42    1
@<TRIPOS>MOLECULE
BDB50200343
 24 27 0 0 0
SMALL
GASTEIGER

@<TRIPOS>ATOM
      1 N           1.0629   59.4970   74.4009 N.ar    1  UNL1       -0.2066
      2 C          -1.5299   60.1806   74.9612 C.ar    1  UNL1        0.0485
      3 C           0.3825   60.2248   73.5226 C.ar    1  UNL1        0.2253
      4 C          -0.9329   60.5864   73.7788 C.ar    1  UNL1        0.0762
      5 C          -1.6445   61.3429   72.8554 C.ar    1  UNL1        0.0080
      6 C          -1.0359   61.7382   71.6706 C.ar    1  UNL1        0.0118
      7 C           0.2806   61.3756   71.4112 C.ar    1  UNL1        0.0636
      8 C           0.9893   60.6189   72.3369 C.ar    1  UNL1        0.0806
      9 C          -0.7946   59.4199   75.8595 C.ar    1  UNL1        0.0498
     10 C           0.5242   59.0916   75.5460 C.ar    1  UNL1        0.1976
     11 C           1.3602   58.2462   76.4710 C.3     1  UNL1        0.1007
     12 C           0.7863   58.2580   77.8886 C.3     1  UNL1        0.0323
     13 C          -0.6728   57.8334   77.7946 C.3     1  UNL1        0.0098
     14 C          -1.4461   58.9745   77.1537 C.3     1  UNL1        0.0334
     15 N          -2.8831   60.5367   75.2470 N.pl3   1  UNL1       -0.3569
     16 C          -1.4805   60.1336   78.1561 C.3     1  UNL1        0.0263
     17 C           0.9305   59.6412   78.4900 C.2     1  UNL1       -0.0344
     18 C          -0.0915   60.4935   78.6100 C.2     1  UNL1       -0.0482
     19 CL          1.0325   61.8607   69.9458 Cl      1  UNL1       -0.0820
     20 H           1.9941   59.2506   74.1976 H       1  UNL1        0.4532
     21 H          -3.3016   60.2452   76.0891 H       1  UNL1        0.1424
     22 H          -3.3975   61.0738   74.6018 H       1  UNL1        0.1424
     23 C           0.1480   61.8413   79.2309 C.3     1  UNL1        0.0217
     24 C           1.6613   62.1137   79.3476 C.3     1  UNL1        0.0047
@<TRIPOS>UNITY_ATOM_ATTR
1 1
charge 1
@<TRIPOS>BOND
     1     4     5   ar
     2     9     2   ar
     3     5     6   ar
     4     9    14    1
     5    10    11    1
     6    12    11    1
     7    12    13    1
     8    14    13    1
     9     2     4   ar
    10     2    15    1
    11     6     7   ar
    12    14    16    1
    13     3     1   ar
    14    12    17    1
    15    17    18    2
    16     7     8   ar
    17    16    18    1
    18     8     3   ar
    19    18    23    1
    20     9    10   ar
    21     1    10   ar
    22     3     4   ar
    23    23    24    1
    24     7    19    1
    25     1    20    1
    26    15    21    1
    27    15    22    1
@<TRIPOS>MOLECULE
BDB50271473
 44 50 0 0 0
SMALL
GASTEIGER

@<TRIPOS>ATOM
      1 C          -2.1796   60.2120   73.9932 C.ar    1  UNL1        0.0603
      2 C          -3.7476   58.6985   74.7486 C.ar    1  UNL1        0.0603
      3 C          -4.7723   59.6262   74.5852 C.ar    1  UNL1        0.0148
      4 C          -4.4793   60.8919   74.1028 C.ar    1  UNL1        0.0024
      5 C          -3.1576   61.1845   73.8059 C.ar    1  UNL1        0.0148
      6 N          -2.4943   59.0085   74.4501 N.ar    1  UNL1       -0.2539
      7 C          -0.7650   60.5326   73.6644 C.3     1  UNL1        0.0669
      8 C          -0.8317   61.2729   72.3536 C.3     1  UNL1        0.0934
      9 N           0.3978   61.9785   72.0156 N.pl3   1  UNL1       -0.3323
     10 H           0.5698   62.8515   72.4367 H       1  UNL1        0.1468
     11 C           2.3278   64.6167   69.4256 C.ar    1  UNL1        0.0004
     12 C           3.2519   64.1805   68.4856 C.ar    1  UNL1        0.0061
     13 C           3.5683   62.8307   68.4070 C.ar    1  UNL1        0.0692
     14 C           1.7221   63.7019   70.2777 C.ar    1  UNL1        0.0071
     15 C           2.0357   62.3486   70.2020 C.ar    1  UNL1        0.0764
     16 C           2.9639   61.9199   69.2641 C.ar    1  UNL1        0.2245
     17 N           3.2817   60.6393   69.1678 N.ar    1  UNL1       -0.2066
     18 C           1.4198   61.4303   71.0482 C.ar    1  UNL1        0.0517
     19 C           1.7938   60.0768   70.9257 C.ar    1  UNL1        0.0500
     20 C           2.7380   59.7258   69.9577 C.ar    1  UNL1        0.1973
     21 C           3.1688   58.2894   69.7337 C.3     1  UNL1        0.0964
     22 C           2.8133   57.3769   70.9018 C.3     1  UNL1        0.0114
     23 C           1.3538   57.5829   71.2056 C.3     1  UNL1        0.0055
     24 C           1.2270   58.9658   71.8157 C.3     1  UNL1        0.0333
     25 H           3.9395   60.3581   68.4914 H       1  UNL1        0.4532
     26 C          -4.0743   57.3373   75.2533 C.3     1  UNL1        0.0669
     27 C          -4.0422   57.4665   76.7545 C.3     1  UNL1        0.0934
     28 N          -3.3756   56.3590   77.4283 N.pl3   1  UNL1       -0.3323
     29 H          -3.7881   55.9887   78.2419 H       1  UNL1        0.1468
     30 C          -3.4774   52.6019   75.6178 C.ar    1  UNL1        0.0004
     31 C          -2.3328   51.9946   75.1190 C.ar    1  UNL1        0.0061
     32 C          -1.1078   52.6380   75.2318 C.ar    1  UNL1        0.0692
     33 C          -3.3918   53.8496   76.2235 C.ar    1  UNL1        0.0071
     34 C          -2.1666   54.4974   76.3386 C.ar    1  UNL1        0.0764
     35 C          -1.0256   53.8842   75.8414 C.ar    1  UNL1        0.2245
     36 N           0.1526   54.4764   75.9334 N.ar    1  UNL1       -0.2066
     37 C          -2.0819   55.7524   76.9376 C.ar    1  UNL1        0.0517
     38 C          -0.8078   56.3478   77.0276 C.ar    1  UNL1        0.0500
     39 C           0.2921   55.6644   76.5035 C.ar    1  UNL1        0.1973
     40 C           1.6915   56.2467   76.5286 C.3     1  UNL1        0.0964
     41 C           1.8353   57.3950   77.5206 C.3     1  UNL1        0.0114
     42 C           0.7256   58.3718   77.2403 C.3     1  UNL1        0.0055
     43 C          -0.5622   57.7079   77.6891 C.3     1  UNL1        0.0333
     44 H           0.9470   54.0232   75.5690 H       1  UNL1        0.4532
@<TRIPOS>UNITY_ATOM_ATTR
17 1
charge 1
36 1
charge 1
@<TRIPOS>BOND
     1    16    17   ar
     2    30    31   ar
     3    17    20   ar
     4    31    32   ar
     5    32    35   ar
     6    12    13   ar
     7    34    33   ar
     8    33    30   ar
     9    19    18   ar
    10    18    15   ar
    11    34    35   ar
    12    19    20   ar
    13    35    36   ar
    14    36    39   ar
    15    13    16   ar
    16    38    37   ar
    17    37    34   ar
    18    38    39   ar
    19     7     8    1
    20    15    14   ar
    21    14    11   ar
    22    11    12   ar
    23    19    24    1
    24    38    43    1
    25    39    40    1
    26    40    41    1
    27    41    42    1
    28    42    43    1
    29    20    21    1
    30    37    28    1
    31    21    22    1
    32    28    27    1
    33    22    23    1
    34    27    26    1
    35    23    24    1
    36    26     2    1
    37    18     9    1
    38     2     3   ar
    39    15    16   ar
    40     3     4   ar
    41     7     1    1
    42     4     5   ar
    43     5     1   ar
    44     8     9    1
    45     1     6   ar
    46     6     2   ar
    47     9    10    1
    48    17    25    1
    49    36    44    1
    50    28    29    1
@<TRIPOS>MOLECULE
BDB50039721
 31 35 0 0 0
SMALL
GASTEIGER

@<TRIPOS>ATOM
      1 C           0.1265   61.9445   71.0753 C.3     1  UNL1        0.0493
      2 N           1.2530   60.9533   73.1126 N.ar    1  UNL1       -0.0814
      3 C          -0.3585   60.3462   74.2886 C.ar    1  UNL1        0.1777
      4 C          -0.9138   60.8912   73.1706 C.ar    1  UNL1        0.0539
      5 O           0.9330   60.4138   74.1922 O.2     1  UNL1       -0.3537
      6 C           0.1637   61.2820   72.4147 C.ar    1  UNL1        0.1005
      7 C          -1.1440   59.8306   75.3057 C.ar    1  UNL1        0.0547
      8 C          -2.5270   59.8965   75.1295 C.ar    1  UNL1        0.0511
      9 C          -2.2784   60.9746   72.9596 C.ar    1  UNL1        0.0057
     10 C          -3.0841   60.4596   73.9748 C.ar    1  UNL1        0.0148
     11 N          -3.3914   59.3787   76.1486 N.pl3   1  UNL1       -0.3027
     12 O          -4.7362   59.5631   78.6373 O.3     1  UNL1       -0.3501
     13 C          -4.8280   59.6010   76.2069 C.3     1  UNL1        0.1231
     14 C          -2.9406   58.6119   77.2999 C.3     1  UNL1        0.1231
     15 C          -3.3154   59.3717   78.5869 C.3     1  UNL1        0.1636
     16 C          -5.1677   60.3433   77.5136 C.3     1  UNL1        0.1636
     17 C           1.3397   61.4945   70.2393 C.3     1  UNL1        0.0068
     18 N           3.7103   64.6781   68.5455 N.4     1  UNL1        0.2792
     19 C           4.4288   63.4742   69.0097 C.3     1  UNL1        0.1057
     20 C           2.6629   65.0576   69.5150 C.3     1  UNL1        0.1057
     21 C           2.3488   62.6547   70.1292 C.3     1  UNL1        0.0122
     22 C           1.6326   63.9206   69.6424 C.3     1  UNL1        0.0611
     23 C           3.4491   62.2916   69.1244 C.3     1  UNL1        0.0611
     24 H           3.2734   64.4782   67.6457 H       1  UNL1        0.2070
     25 C           4.6882   65.8114   68.4113 C.3     1  UNL1        0.1328
     26 C           4.4046   66.8971   67.3461 C.ar    1  UNL1        0.0326
     27 C           3.4488   67.8915   67.5190 C.ar    1  UNL1        0.0014
     28 C           5.1535   66.8523   66.1734 C.ar    1  UNL1        0.0014
     29 C           4.9459   67.7994   65.1784 C.ar    1  UNL1       -0.0001
     30 C           3.2411   68.8395   66.5230 C.ar    1  UNL1       -0.0001
     31 C           3.9894   68.7932   65.3535 C.ar    1  UNL1       -0.0000
@<TRIPOS>UNITY_ATOM_ATTR
18 1
charge 1
@<TRIPOS>BOND
     1     3     5   ar
     2     4     6   ar
     3     5     2   ar
     4     6     2   ar
     5     7     3   ar
     6    11     8    1
     7     8     7   ar
     8    18    19    1
     9     9     4   ar
    10    10     9   ar
    11     1     6    1
    12    12    15    1
    13    25    18    1
    14    19    23    1
    15    20    22    1
    16    17     1    1
    17    26    25    1
    18    21    17    1
    19    22    21    1
    20    23    21    1
    21    13    11    1
    22    14    11    1
    23    15    14    1
    24    16    13    1
    25    27    26   ar
    26    28    26   ar
    27    29    28   ar
    28    30    27   ar
    29    31    29   ar
    30     4     3   ar
    31    10     8   ar
    32    18    20    1
    33    12    16    1
    34    31    30   ar
    35    18    24    1
@<TRIPOS>MOLECULE
BDB50008578
 21 23 0 0 0
SMALL
GASTEIGER

@<TRIPOS>ATOM
      1 N           2.7445   62.4905   69.2500 N.am    1  UNL1       -0.2229
      2 C           3.0058   61.1047   69.3438 C.2     1  UNL1        0.2551
      3 C           1.7010   62.8097   70.1482 C.2     1  UNL1        0.2551
      4 C           2.0921   60.5551   70.3330 C.ar    1  UNL1        0.0584
      5 C           1.3091   61.5783   70.8158 C.ar    1  UNL1        0.0584
      6 O           3.8539   60.4771   68.7035 O.2     1  UNL1       -0.2695
      7 O           1.2128   63.9282   70.3320 O.2     1  UNL1       -0.2695
      8 C           0.3357   61.3670   71.7781 C.ar    1  UNL1        0.0047
      9 C           1.9547   59.2515   70.7798 C.ar    1  UNL1        0.0047
     10 C           0.9793   59.0198   71.7491 C.ar    1  UNL1        0.0001
     11 C           0.1832   60.0601   72.2400 C.ar    1  UNL1        0.0001
     12 C           3.4225   63.4151   68.3897 C.3     1  UNL1        0.1015
     13 C           4.4206   64.2678   69.2009 C.3     1  UNL1        0.0224
     14 N           3.4294   67.7304   66.8237 N.4     1  UNL1        0.2804
     15 C           4.7399   67.0951   66.5787 C.3     1  UNL1        0.1055
     16 C           3.1573   67.8051   68.2733 C.3     1  UNL1        0.1055
     17 C           4.4574   65.7007   68.6346 C.3     1  UNL1        0.0135
     18 C           3.1057   66.3863   68.8688 C.3     1  UNL1        0.0612
     19 C           4.7348   65.6561   67.1269 C.3     1  UNL1        0.0612
     20 C           3.4362   69.0883   66.2610 C.3     1  UNL1        0.1672
     21 H           2.7020   67.1708   66.3787 H       1  UNL1        0.2069
@<TRIPOS>UNITY_ATOM_ATTR
14 1
charge 1
@<TRIPOS>BOND
     1     2     1   am
     2     3     1   am
     3     4     2    1
     4     5     3    1
     5    12     1    1
     6    14    15    1
     7     6     2    2
     8     7     3    2
     9    15    19    1
    10    16    18    1
    11    13    12    1
    12    17    13    1
    13     8     5   ar
    14     9     4   ar
    15    18    17    1
    16    19    17    1
    17    20    14    1
    18    10     9   ar
    19    11     8   ar
    20     5     4   ar
    21    11    10   ar
    22    16    14    1
    23    14    21    1
@<TRIPOS>MOLECULE
BDB50032163
 30 34 0 0 0
SMALL
GASTEIGER

@<TRIPOS>ATOM
      1 C           3.2016   63.3967   68.4051 C.3     1  UNL1        0.0493
      2 C           1.9667   61.7819   69.9687 C.ar    1  UNL1        0.0551
      3 N           3.6691   60.9611   68.9017 N.ar    1  UNL1       -0.0814
      4 N          -0.9463   62.3768   72.0833 N.am    1  UNL1       -0.2839
      5 C           0.1337   61.8648   71.4035 C.ar    1  UNL1        0.0470
      6 C           2.1762   60.4638   70.2722 C.ar    1  UNL1        0.1763
      7 O           3.2031   60.0397   69.6032 O.2     1  UNL1       -0.3537
      8 C           0.9472   62.5520   70.5081 C.ar    1  UNL1        0.0188
      9 C          -1.4605   61.3286   72.8687 C.2     1  UNL1        0.2306
     10 C           2.9602   62.0793   69.0687 C.ar    1  UNL1        0.1006
     11 C           0.3345   60.5275   71.7208 C.ar    1  UNL1        0.0035
     12 C           1.3663   59.7760   71.1649 C.ar    1  UNL1        0.0377
     13 C          -0.6799   60.0251   72.7106 C.3     1  UNL1        0.1130
     14 O          -2.4414   61.4470   73.6097 O.2     1  UNL1       -0.2744
     15 H          -1.2921   63.2971   72.0309 H       1  UNL1        0.1549
     16 C           4.0701   64.2855   69.3155 C.3     1  UNL1        0.0068
     17 N           3.7221   67.5356   66.4977 N.4     1  UNL1        0.2792
     18 C           3.1860   67.7584   67.8556 C.3     1  UNL1        0.1057
     19 C           5.0211   66.8364   66.5661 C.3     1  UNL1        0.1057
     20 C           4.2862   65.6561   68.6437 C.3     1  UNL1        0.0122
     21 C           4.8380   65.4578   67.2265 C.3     1  UNL1        0.0611
     22 C           2.9515   66.4063   68.5543 C.3     1  UNL1        0.0611
     23 H           3.0637   66.9623   65.9703 H       1  UNL1        0.2070
     24 C           3.9153   68.8645   65.8227 C.3     1  UNL1        0.1328
     25 C           4.2111   68.8748   64.3042 C.ar    1  UNL1        0.0326
     26 C           5.4710   69.1456   63.7832 C.ar    1  UNL1        0.0014
     27 C           3.1512   68.5975   63.4451 C.ar    1  UNL1        0.0014
     28 C           3.3527   68.5914   62.0706 C.ar    1  UNL1       -0.0001
     29 C           5.6727   69.1396   62.4074 C.ar    1  UNL1       -0.0001
     30 C           4.6139   68.8626   61.5517 C.ar    1  UNL1       -0.0000
@<TRIPOS>UNITY_ATOM_ATTR
17 1
charge 1
@<TRIPOS>BOND
     1     3    10   ar
     2     4     5    1
     3     5     8   ar
     4     6     2   ar
     5     7     6   ar
     6     8     2   ar
     7     9     4   am
     8    10     2   ar
     9    11     5   ar
    10    12     6   ar
    11    17    18    1
    12    13    11    1
    13    14     9    2
    14     1    10    1
    15    24    17    1
    16    18    22    1
    17    19    21    1
    18    16     1    1
    19    25    24    1
    20    20    16    1
    21    21    20    1
    22    22    20    1
    23    26    25   ar
    24    27    25   ar
    25    28    27   ar
    26    29    26   ar
    27    30    28   ar
    28    12    11   ar
    29     3     7   ar
    30    13     9    1
    31    19    17    1
    32    29    30   ar
    33     4    15    1
    34    17    23    1
@<TRIPOS>MOLECULE
BDB10516
 20 22 0 0 0
SMALL
GASTEIGER

@<TRIPOS>ATOM
      1 C           1.8258   60.4695   70.3628 C.ar    1  UNL1        0.0654
      2 C           0.7663   60.1317   71.1955 C.ar    1  UNL1        0.0232
      3 C          -0.0571   61.1178   71.7200 C.ar    1  UNL1        0.0644
      4 C           0.1780   62.4496   71.4093 C.ar    1  UNL1        0.0806
      5 C           2.0654   61.8096   70.0505 C.ar    1  UNL1        0.0868
      6 C           1.2350   62.7949   70.5772 C.ar    1  UNL1        0.2262
      7 C           3.1147   62.2003   69.2236 C.ar    1  UNL1        0.0494
      8 C           3.2962   63.5483   68.9522 C.ar    1  UNL1        0.0498
      9 C           2.4241   64.4808   69.5081 C.ar    1  UNL1        0.1973
     10 C           4.4325   63.9564   68.0492 C.3     1  UNL1        0.0333
     11 C           2.5808   65.9589   69.2524 C.3     1  UNL1        0.0964
     12 C           3.4573   66.2214   68.0241 C.3     1  UNL1        0.0114
     13 C           4.7531   65.4449   68.1992 C.3     1  UNL1        0.0055
     14 N           1.4352   64.0771   70.2957 N.ar    1  UNL1       -0.2066
     15 N           4.0148   61.2573   68.6408 N.pl3   1  UNL1       -0.3569
     16 CL          2.8077   59.2020   69.7477 Cl      1  UNL1       -0.0820
     17 CL         -1.3629   60.6903   72.7496 Cl      1  UNL1       -0.0820
     18 H           0.8304   64.7500   70.6838 H       1  UNL1        0.4532
     19 H           3.9044   60.2956   68.8201 H       1  UNL1        0.1424
     20 H           4.7459   61.5689   68.0597 H       1  UNL1        0.1424
@<TRIPOS>UNITY_ATOM_ATTR
14 1
charge 1
@<TRIPOS>BOND
     1     1     2   ar
     2     1     5   ar
     3     2     3   ar
     4     3     4   ar
     5     4     6   ar
     6     7     5   ar
     7     6     5   ar
     8     6    14   ar
     9     7     8   ar
    10    14     9   ar
    11    10     8    1
    12     9     8   ar
    13     9    11    1
    14    10    13    1
    15    11    12    1
    16    12    13    1
    17     7    15    1
    18     3    17    1
    19     1    16    1
    20    14    18    1
    21    15    19    1
    22    15    20    1
@<TRIPOS>MOLECULE
BDB50271192
 42 47 0 0 0
SMALL
GASTEIGER

@<TRIPOS>ATOM
      1 C           1.8309   61.9498   70.3586 C.3     1  UNL1        0.0118
      2 C           0.3912   62.4916   70.3956 C.3     1  UNL1        0.0611
      3 C          -0.2991   62.0375   71.6738 C.3     1  UNL1        0.1053
      4 N          -0.3025   60.5709   71.7391 N.4     1  UNL1        0.2758
      5 C           1.0667   60.0515   71.8196 C.3     1  UNL1        0.1053
      6 C           1.8264   60.4197   70.5511 C.3     1  UNL1        0.0611
      7 H          -0.7439   60.1939   70.9003 H       1  UNL1        0.2067
      8 C           2.6073   62.3920   69.0412 C.3     1  UNL1        0.0011
      9 C           3.2925   68.1715   67.4830 C.ar    1  UNL1        0.1721
     10 C           4.2419   67.6516   66.6037 C.ar    1  UNL1        0.1721
     11 C           4.6294   66.3170   66.6899 C.ar    1  UNL1        0.0355
     12 C           2.7156   67.3636   68.4594 C.ar    1  UNL1        0.0355
     13 C           3.1047   66.0354   68.5284 C.ar    1  UNL1       -0.0229
     14 C           4.0432   65.5234   67.6629 C.ar    1  UNL1       -0.0229
     15 C           4.3037   64.0832   67.8514 C.3     1  UNL1        0.0265
     16 C           3.4111   63.7624   69.1117 C.3     1  UNL1        0.0087
     17 C           2.5552   65.0385   69.4694 C.3     1  UNL1        0.0265
     18 O           4.8014   68.4813   65.6308 O.3     1  UNL1       -0.4684
     19 C           4.0816   68.3576   64.3988 C.3     1  UNL1        0.2526
     20 O           2.9213   69.5126   67.3752 O.3     1  UNL1       -0.4684
     21 C           3.0014   70.1544   68.6529 C.3     1  UNL1        0.2526
     22 C          -1.0138   60.1851   72.9224 C.3     1  UNL1        0.1071
     23 C          -1.9246   61.3289   73.3919 C.3     1  UNL1        0.0820
     24 C          -3.2073   60.6294   73.7229 C.3     1  UNL1        0.0932
     25 N          -3.9010   61.0920   74.9212 N.pl3   1  UNL1       -0.3324
     26 H          -3.4974   61.8099   75.4606 H       1  UNL1        0.1468
     27 C          -5.2247   60.4980   75.3578 C.ar    1  UNL1        0.0517
     28 N          -7.7417   59.5778   76.0312 N.ar    1  UNL1       -0.2066
     29 C          -6.7023   58.7737   76.1859 C.ar    1  UNL1        0.1973
     30 C          -5.4102   59.1927   75.8612 C.ar    1  UNL1        0.0500
     31 C          -4.2593   58.2080   76.1045 C.3     1  UNL1        0.0333
     32 C          -4.7036   56.7607   76.1587 C.3     1  UNL1        0.0055
     33 C          -5.7463   56.6761   77.2379 C.3     1  UNL1        0.0114
     34 C          -6.9920   57.3850   76.7215 C.3     1  UNL1        0.0964
     35 C          -6.3532   61.3057   75.2330 C.ar    1  UNL1        0.0764
     36 C          -7.6039   60.8119   75.5773 C.ar    1  UNL1        0.2253
     37 C          -8.7364   61.6024   75.4374 C.ar    1  UNL1        0.0806
     38 C          -8.6280   62.8957   74.9465 C.ar    1  UNL1        0.0636
     39 C          -7.3810   63.3971   74.5966 C.ar    1  UNL1        0.0118
     40 C          -6.2489   62.6031   74.7405 C.ar    1  UNL1        0.0080
     41 CL        -10.0374   63.8685   74.7742 Cl      1  UNL1       -0.0820
     42 H          -8.6409   59.2486   76.2600 H       1  UNL1        0.4532
@<TRIPOS>UNITY_ATOM_ATTR
4 1
charge 1
28 1
charge 1
@<TRIPOS>BOND
     1     3     4    1
     2     4     5    1
     3     5     6    1
     4    17    13    1
     5     4    22    1
     6    13    12   ar
     7    22    23    1
     8    10    18    1
     9    23    24    1
    10    12     9   ar
    11    24    25    1
    12    27    25    1
    13    18    19    1
    14    27    30   ar
    15    13    14   ar
    16    29    28   ar
    17    28    36   ar
    18    35    27   ar
    19    29    30   ar
    20     9    20    1
    21     9    10   ar
    22    20    21    1
    23    16     8    1
    24    10    11   ar
    25    29    34    1
    26    30    31    1
    27    31    32    1
    28    32    33    1
    29    33    34    1
    30     8     1    1
    31     1     2    1
    32    35    36   ar
    33    11    14   ar
    34    36    37   ar
    35    37    38   ar
    36    14    15    1
    37    38    39   ar
    38    15    16    1
    39    39    40   ar
    40    40    35   ar
    41    16    17    1
    42    38    41    1
    43     1     6    1
    44     2     3    1
    45     4     7    1
    46    25    26    1
    47    28    42    1
@<TRIPOS>MOLECULE
BDB50004016
 37 41 0 0 0
SMALL
GASTEIGER

@<TRIPOS>ATOM
      1 N           2.7860   62.5506   69.3127 N.am    1  UNL1       -0.2229
      2 C           1.7502   62.8743   70.2182 C.2     1  UNL1        0.2551
      3 C           3.0271   61.1606   69.3890 C.2     1  UNL1        0.2551
      4 C           1.3417   61.6402   70.8727 C.ar    1  UNL1        0.0596
      5 C           2.1084   60.6120   70.3747 C.ar    1  UNL1        0.0584
      6 C           1.9529   59.3057   70.8065 C.ar    1  UNL1        0.0059
      7 C           0.3686   61.4306   71.8356 C.ar    1  UNL1        0.0193
      8 O           1.2796   63.9979   70.4164 O.2     1  UNL1       -0.2695
      9 O           3.8640   60.5287   68.7382 O.2     1  UNL1       -0.2695
     10 C           0.1963   60.1211   72.2840 C.ar    1  UNL1        0.0507
     11 C           0.9772   59.0772   71.7760 C.ar    1  UNL1        0.0148
     12 C          -2.0664   60.4589   73.3316 C.2     1  UNL1        0.2495
     13 N          -0.7871   59.8437   73.2715 N.am    1  UNL1       -0.2804
     14 O          -2.4258   61.3044   72.5048 O.2     1  UNL1       -0.2698
     15 H          -0.5665   59.1782   73.9627 H       1  UNL1        0.1552
     16 C          -2.9863   60.0821   74.4022 C.ar    1  UNL1        0.0537
     17 C          -4.3338   60.4051   74.3066 C.ar    1  UNL1        0.0045
     18 C          -2.5115   59.3998   75.5170 C.ar    1  UNL1        0.0045
     19 C          -3.3856   59.0411   76.5355 C.ar    1  UNL1        0.0001
     20 C          -5.2087   60.0460   75.3261 C.ar    1  UNL1        0.0001
     21 C          -4.7345   59.3643   76.4399 C.ar    1  UNL1        0.0000
     22 C           3.4750   63.4753   68.4614 C.3     1  UNL1        0.1015
     23 C           4.3542   64.4244   69.3026 C.3     1  UNL1        0.0224
     24 N           3.7103   67.5983   66.4505 N.4     1  UNL1        0.2792
     25 C           3.2890   67.8460   67.8442 C.3     1  UNL1        0.1057
     26 C           5.0221   66.9206   66.4227 C.3     1  UNL1        0.1057
     27 C           4.4880   65.7805   68.5827 C.3     1  UNL1        0.0135
     28 C           3.1377   66.5074   68.5897 C.3     1  UNL1        0.0612
     29 C           4.9216   65.5559   67.1288 C.3     1  UNL1        0.0612
     30 H           3.0187   67.0027   65.9952 H       1  UNL1        0.2070
     31 C           3.8221   68.9130   65.7310 C.3     1  UNL1        0.1328
     32 C           4.1724   68.8921   64.2242 C.ar    1  UNL1        0.0326
     33 C           5.4488   69.1593   63.7431 C.ar    1  UNL1        0.0014
     34 C           3.1458   68.5894   63.3339 C.ar    1  UNL1        0.0014
     35 C           3.3968   68.5548   61.9679 C.ar    1  UNL1       -0.0001
     36 C           5.7000   69.1247   62.3758 C.ar    1  UNL1       -0.0001
     37 C           4.6743   68.8225   61.4889 C.ar    1  UNL1       -0.0000
@<TRIPOS>UNITY_ATOM_ATTR
24 1
charge 1
@<TRIPOS>BOND
     1     2     1   am
     2     3     1   am
     3     4     2    1
     4     5     3    1
     5    12    13   am
     6    22     1    1
     7    13    10    1
     8    24    26    1
     9     6     5   ar
    10     7     4   ar
    11     8     2    2
    12     9     3    2
    13    10     7   ar
    14    14    12    2
    15    16    12    1
    16    31    24    1
    17    11     6   ar
    18    25    28    1
    19    26    29    1
    20    23    22    1
    21    27    23    1
    22    32    31    1
    23    28    27    1
    24    29    27    1
    25    17    16   ar
    26    18    16   ar
    27    33    32   ar
    28    34    32   ar
    29    19    18   ar
    30    20    17   ar
    31    35    34   ar
    32    36    33   ar
    33    37    35   ar
    34    21    19   ar
    35     5     4   ar
    36    10    11   ar
    37    24    25    1
    38    21    20   ar
    39    37    36   ar
    40    13    15    1
    41    24    30    1
@<TRIPOS>MOLECULE
BDB50055206
 13 13 0 0 0
SMALL
GASTEIGER

@<TRIPOS>ATOM
      1 C           2.1633   64.2782   69.0803 C.ar    1  UNL1        0.0994
      2 C           2.5418   63.2776   69.9677 C.ar    1  UNL1        0.1690
      3 C           3.1324   65.0410   68.4394 C.ar    1  UNL1        0.1404
      4 C           4.4793   64.8031   68.6860 C.ar    1  UNL1        0.0125
      5 C           3.8887   63.0400   70.2141 C.ar    1  UNL1        0.0629
      6 C           4.8576   63.8026   69.5733 C.ar    1  UNL1        0.0046
      7 C           5.5236   65.6253   67.9952 C.3     1  UNL1        0.0342
      8 N           1.5408   62.4885   70.6309 N.pl3   1  UNL1       -0.3099
      9 C           0.1438   62.7667   70.2630 C.3     1  UNL1        0.3353
     10 C           1.8298   62.4614   72.0742 C.3     1  UNL1        0.3353
     11 C           1.9285   61.0816   70.4468 C.3     1  UNL1        0.3353
     12 O           2.7517   66.0491   67.5455 O.3     1  UNL1       -0.4715
     13 C           2.3814   67.2461   68.2445 C.3     1  UNL1        0.2525
@<TRIPOS>UNITY_ATOM_ATTR
8 1
charge 1
@<TRIPOS>BOND
     1     2     1   ar
     2     8     2    1
     3     3     1   ar
     4     4     3   ar
     5     5     2   ar
     6     6     4   ar
     7    12     3    1
     8     9     8    1
     9    10     8    1
    10    11     8    1
    11     7     4    1
    12    13    12    1
    13     6     5   ar
@<TRIPOS>MOLECULE
BDB9057
 39 44 0 0 0
SMALL
GASTEIGER

@<TRIPOS>ATOM
      1 C          -2.4049   60.0601   74.7278 C.3     1  UNL1        0.0001
      2 C          -2.5238   60.9663   73.5211 C.3     1  UNL1        0.0017
      3 C          -1.4887   60.5911   72.4704 C.3     1  UNL1        0.0212
      4 C          -0.9228   61.9092   72.0066 C.3     1  UNL1        0.0870
      5 N           0.5278   62.0058   72.1668 N.pl3   1  UNL1       -0.3328
      6 H           0.8866   62.3897   72.9994 H       1  UNL1        0.1468
      7 C           1.8933   63.7632   70.1239 C.ar    1  UNL1        0.0059
      8 C           2.5299   64.5449   69.1783 C.ar    1  UNL1        0.0208
      9 C           3.3897   63.9369   68.2781 C.ar    1  UNL1        0.1006
     10 C           2.1103   62.3834   70.1729 C.ar    1  UNL1        0.0486
     11 C           2.9885   61.8563   69.2331 C.ar    1  UNL1        0.1630
     12 C           1.4983   61.5404   71.1062 C.ar    1  UNL1        0.0447
     13 N           3.2481   60.5535   69.2156 N.ar    1  UNL1       -0.2312
     14 C           2.6971   59.7158   70.0760 C.ar    1  UNL1        0.0578
     15 C           3.0650   58.2573   69.9607 C.3     1  UNL1        0.0456
     16 C           2.0271   57.3657   70.6342 C.3     1  UNL1        0.0066
     17 C           1.8764   57.8516   72.0605 C.3     1  UNL1        0.0052
     18 C           1.1729   59.2123   72.0361 C.3     1  UNL1        0.0288
     19 C           1.8112   60.1753   71.0491 C.ar    1  UNL1        0.0046
     20 N           3.5890   62.6243   68.3348 N.ar    1  UNL1       -0.2250
     21 C          -3.5923   59.1213   74.6850 C.3     1  UNL1        0.0017
     22 C          -3.4670   58.0612   75.7691 C.3     1  UNL1        0.0212
     23 C          -2.9085   58.7934   76.9634 C.3     1  UNL1        0.0870
     24 N          -2.0099   57.9691   77.7714 N.pl3   1  UNL1       -0.3328
     25 H          -2.1429   57.9429   78.7465 H       1  UNL1        0.1468
     26 C          -0.8866   57.1564   77.1725 C.ar    1  UNL1        0.0447
     27 C          -0.9358   55.7750   76.9646 C.ar    1  UNL1        0.0486
     28 C           0.1501   55.1194   76.3959 C.ar    1  UNL1        0.1630
     29 C          -0.9033   53.0505   76.4984 C.ar    1  UNL1        0.1006
     30 C          -2.0276   53.6224   77.0715 C.ar    1  UNL1        0.0208
     31 C          -2.0386   54.9848   77.3027 C.ar    1  UNL1        0.0059
     32 N           1.2390   55.8002   76.0539 N.ar    1  UNL1       -0.2312
     33 C           0.2859   57.8262   76.7958 C.ar    1  UNL1        0.0046
     34 C           0.3980   59.3237   76.9961 C.3     1  UNL1        0.0288
     35 C           1.4795   59.9311   76.1024 C.3     1  UNL1        0.0052
     36 C           2.7670   59.1824   76.3756 C.3     1  UNL1        0.0066
     37 C           2.6280   57.7707   75.8068 C.3     1  UNL1        0.0456
     38 C           1.3401   57.1042   76.2388 C.ar    1  UNL1        0.0578
     39 N           0.1399   53.8113   76.1832 N.ar    1  UNL1       -0.2250
@<TRIPOS>BOND
     1     7     8   ar
     2     7    10   ar
     3     8     9   ar
     4     9    20   ar
     5    20    11   ar
     6    12    10   ar
     7    11    10   ar
     8    11    13   ar
     9    12    19   ar
    10    13    14   ar
    11    12     5    1
    12     5     4    1
    13     4     3    1
    14     3     2    1
    15     2     1    1
    16     1    21    1
    17    21    22    1
    18    22    23    1
    19    23    24    1
    20    24    26    1
    21    27    26   ar
    22    26    33   ar
    23    32    28   ar
    24    32    38   ar
    25    31    27   ar
    26    28    27   ar
    27    39    28   ar
    28    39    29   ar
    29    29    30   ar
    30    30    31   ar
    31    33    34    1
    32    34    35    1
    33    35    36    1
    34    36    37    1
    35    37    38    1
    36    33    38   ar
    37    14    15    1
    38    15    16    1
    39    16    17    1
    40    17    18    1
    41    18    19    1
    42    14    19   ar
    43     5     6    1
    44    24    25    1
@<TRIPOS>MOLECULE
BDB50055163
 13 13 0 0 0
SMALL
GASTEIGER

@<TRIPOS>ATOM
      1 C           2.3641   60.3394   69.8474 C.ar    1  UNL1        0.0691
      2 C           1.3719   60.6560   70.8017 C.ar    1  UNL1        0.1646
      3 C           2.9009   59.0418   69.8239 C.ar    1  UNL1        0.1351
      4 O           3.9161   58.6246   68.9111 O.3     1  UNL1       -0.5056
      5 C           2.8941   61.3456   68.8353 C.3     1  UNL1        0.0403
      6 C           0.9570   59.6643   71.6858 C.ar    1  UNL1        0.0628
      7 C           1.4837   58.3846   71.6531 C.ar    1  UNL1        0.0090
      8 C           2.4577   58.0795   70.7205 C.ar    1  UNL1        0.0367
      9 H           4.2567   59.2287   68.2810 H       1  UNL1        0.2922
     10 N           0.6610   61.9797   71.0160 N.pl3   1  UNL1       -0.3102
     11 C           0.2521   62.9112   69.9360 C.3     1  UNL1        0.3353
     12 C          -0.3939   61.7692   72.0202 C.3     1  UNL1        0.3353
     13 C           1.4973   62.6824   72.0008 C.3     1  UNL1        0.3353
@<TRIPOS>UNITY_ATOM_ATTR
10 1
charge 1
@<TRIPOS>BOND
     1     2     1   ar
     2    10     2    1
     3     3     1   ar
     4     4     3    1
     5     5     1    1
     6     6     2   ar
     7    11    10    1
     8    12    10    1
     9    13    10    1
    10     7     8   ar
    11     8     3   ar
    12     7     6   ar
    13     4     9    1
@<TRIPOS>MOLECULE
BDB50318738
 58 64 0 0 0
SMALL
GASTEIGER

@<TRIPOS>ATOM
      1 N           0.0661   60.8423   76.5262 N.4     1  UNL1        0.2546
      2 H          -0.3506   61.3816   75.7673 H       1  UNL1        0.2035
      3 H           0.4860   61.4647   77.2166 H       1  UNL1        0.2035
      4 C          -0.9894   60.0430   77.1895 C.3     1  UNL1        0.1085
      5 C          -1.8026   59.2695   76.1113 C.3     1  UNL1        0.1214
      6 C          -3.0412   60.0930   75.7043 C.3     1  UNL1        0.1085
      7 N          -3.3574   59.9070   74.2713 N.4     1  UNL1        0.2545
      8 H          -4.3665   59.9494   74.1293 H       1  UNL1        0.2035
      9 H          -3.0272   58.9982   73.9464 H       1  UNL1        0.2035
     10 C          -2.7087   60.9778   73.5370 C.3     1  UNL1        0.1041
     11 C          -1.4607   60.5044   72.7729 C.3     1  UNL1        0.0819
     12 C          -1.0166   61.7584   72.0467 C.3     1  UNL1        0.0932
     13 N           0.4212   62.0583   72.0742 N.pl3   1  UNL1       -0.3324
     14 H           0.7590   62.6818   72.7573 H       1  UNL1        0.1468
     15 C           1.4113   61.4478   71.0936 C.ar    1  UNL1        0.0517
     16 N           3.2715   60.5479   69.2559 N.ar    1  UNL1       -0.2066
     17 C           1.7490   60.0810   71.0121 C.ar    1  UNL1        0.0500
     18 C           2.0446   62.3187   70.2091 C.ar    1  UNL1        0.0764
     19 C           2.6943   59.6746   70.0667 C.ar    1  UNL1        0.1973
     20 C           2.9754   61.8359   69.2992 C.ar    1  UNL1        0.2245
     21 C           1.1152   59.0055   71.8993 C.3     1  UNL1        0.0333
     22 C           1.7638   63.6808   70.2338 C.ar    1  UNL1        0.0071
     23 C           3.1222   58.2270   69.9209 C.3     1  UNL1        0.0964
     24 C           3.6172   62.7017   68.4225 C.ar    1  UNL1        0.0692
     25 C           1.9440   57.7393   71.9985 C.3     1  UNL1        0.0055
     26 C           2.4051   64.5500   69.3594 C.ar    1  UNL1        0.0004
     27 C           2.1587   57.2555   70.5910 C.3     1  UNL1        0.0114
     28 C           3.3342   64.0605   68.4508 C.ar    1  UNL1        0.0061
     29 H           3.9378   60.2303   68.6044 H       1  UNL1        0.4532
     30 C           1.1471   59.9464   75.9620 C.3     1  UNL1        0.1097
     31 C           2.5586   60.1549   76.6825 C.3     1  UNL1        0.1458
     32 C           2.4181   60.2086   78.2393 C.3     1  UNL1        0.3282
     33 N           3.4285   59.4470   79.0704 N.ar    1  UNL1       -0.1692
     34 C           4.3359   60.2059   79.7359 C.ar    1  UNL1        0.2273
     35 C           3.4879   58.0935   79.0840 C.ar    1  UNL1        0.2259
     36 C           4.5820   57.4887   79.7559 C.ar    1  UNL1        0.0649
     37 C           5.4199   59.6114   80.3889 C.ar    1  UNL1        0.0638
     38 C           5.5529   58.2596   80.3743 C.ar    1  UNL1        0.0115
     39 C           4.2344   61.5907   79.7955 C.ar    1  UNL1        0.0833
     40 C           6.3806   60.3700   81.0512 C.ar    1  UNL1        0.0072
     41 C           6.6733   57.6665   80.9684 C.ar    1  UNL1        0.0016
     42 C           4.7845   56.1276   79.7466 C.ar    1  UNL1        0.0200
     43 C           5.1908   62.3575   80.4777 C.ar    1  UNL1        0.0475
     44 C           5.8813   55.5143   80.3269 C.ar    1  UNL1        0.0417
     45 C           6.2701   61.7446   81.0971 C.ar    1  UNL1        0.0145
     46 C           6.8443   56.2915   80.9494 C.ar    1  UNL1        0.0141
     47 N           5.0914   63.7864   80.5589 N.pl3   1  UNL1       -0.3568
     48 N           5.9836   54.0974   80.2452 N.pl3   1  UNL1       -0.3570
     49 H           4.3376   64.2525   80.1301 H       1  UNL1        0.1424
     50 H           5.7769   64.3009   81.0433 H       1  UNL1        0.1424
     51 H           5.2790   53.5782   79.7946 H       1  UNL1        0.1424
     52 H           6.7591   53.6364   80.6393 H       1  UNL1        0.1424
     53 C           2.4106   57.0698   78.3355 C.ar    1  UNL1        0.0635
     54 C           2.5752   56.5775   77.0423 C.ar    1  UNL1        0.0059
     55 C           1.2280   56.6697   78.9566 C.ar    1  UNL1        0.0059
     56 C           0.2697   55.8549   78.3692 C.ar    1  UNL1        0.0002
     57 C           1.6313   55.7613   76.4234 C.ar    1  UNL1        0.0002
     58 C           0.4672   55.3942   77.0805 C.ar    1  UNL1        0.0000
@<TRIPOS>UNITY_ATOM_ATTR
1 1
charge 1
7 1
charge 1
16 1
charge 1
33 1
charge 1
@<TRIPOS>BOND
     1    34    33   ar
     2    35    33   ar
     3    36    35   ar
     4    37    34   ar
     5    38    37   ar
     6    15    13    1
     7    16    20   ar
     8    17    15   ar
     9    18    15   ar
    10    19    17   ar
    11    20    18   ar
    12    39    34   ar
    13    40    37   ar
    14    41    38   ar
    15    42    36   ar
    16    53    35    1
    17    32    33    1
    18    13    12    1
    19    43    39   ar
    20    44    42   ar
    21    45    40   ar
    22    46    41   ar
    23    47    43    1
    24    48    44    1
    25     7     6    1
    26     1    30    1
    27    21    17    1
    28    31    32    1
    29    22    18   ar
    30    11    10    1
    31     5     4    1
    32    23    19    1
    33    24    20   ar
    34    12    11    1
    35     6     5    1
    36     4     1    1
    37    10     7    1
    38    30    31    1
    39    54    53   ar
    40    55    53   ar
    41    25    21    1
    42    26    22   ar
    43    27    25    1
    44    28    26   ar
    45    56    55   ar
    46    57    54   ar
    47    58    56   ar
    48    36    38   ar
    49    43    45   ar
    50    46    44   ar
    51    57    58   ar
    52    16    19   ar
    53    28    24   ar
    54    23    27    1
    55    16    29    1
    56    13    14    1
    57    47    49    1
    58    47    50    1
    59    48    51    1
    60    48    52    1
    61     7     8    1
    62     7     9    1
    63     1     2    1
    64     1     3    1
@<TRIPOS>MOLECULE
BDB50263215
 44 49 0 0 0
SMALL
GASTEIGER

@<TRIPOS>ATOM
      1 N           1.1152   58.1183   75.4943 N.4     1  UNL1        0.2543
      2 H           1.5568   58.6782   74.7649 H       1  UNL1        0.2035
      3 H           0.3895   57.5276   75.0884 H       1  UNL1        0.2035
      4 C           0.5015   59.0176   76.4969 C.3     1  UNL1        0.1023
      5 C          -0.0950   60.2627   75.7919 C.3     1  UNL1        0.0609
      6 C          -1.1956   59.8351   74.7873 C.3     1  UNL1        0.0099
      7 C          -1.6573   61.0631   73.9643 C.3     1  UNL1        0.0475
      8 C          -1.1706   60.9423   72.5000 C.3     1  UNL1        0.2054
      9 O           0.2187   61.3129   72.4246 O.3     1  UNL1       -0.4754
     10 C           1.6470   58.0568   71.3309 C.ar    1  UNL1        0.0046
     11 C           2.4977   58.4468   70.2956 C.ar    1  UNL1        0.0172
     12 C           0.9656   60.3456   71.7315 C.ar    1  UNL1        0.1399
     13 C           0.8889   58.9929   72.0421 C.ar    1  UNL1        0.0370
     14 C           1.8130   60.7152   70.7032 C.ar    1  UNL1        0.0509
     15 C           2.5618   59.7988   69.9995 C.ar    1  UNL1        0.0596
     16 N           3.2944   60.4083   69.0628 N.ar    1  UNL1       -0.3530
     17 C           2.1083   61.9466   70.1631 C.ar    1  UNL1        0.0199
     18 C           3.0217   61.7130   69.1590 C.ar    1  UNL1        0.0567
     19 C           3.5338   62.7541   68.4027 C.ar    1  UNL1        0.0170
     20 C           3.0847   64.0399   68.7034 C.ar    1  UNL1        0.0015
     21 C           2.1566   64.2666   69.7253 C.ar    1  UNL1        0.0001
     22 C           1.6465   63.2125   70.4814 C.ar    1  UNL1        0.0016
     23 H           3.9129   59.9806   68.4272 H       1  UNL1        0.1659
     24 C           2.1353   57.2586   76.1357 C.3     1  UNL1        0.1040
     25 C           1.5064   56.5074   77.3351 C.3     1  UNL1        0.0819
     26 C           1.4111   54.9927   77.0300 C.3     1  UNL1        0.0932
     27 N           0.1792   54.4443   77.6376 N.pl3   1  UNL1       -0.3324
     28 H           0.0693   54.2503   78.5965 H       1  UNL1        0.1468
     29 C          -0.8371   54.2318   76.6419 C.ar    1  UNL1        0.0517
     30 N          -2.7761   53.8293   74.7499 N.ar    1  UNL1       -0.2066
     31 C          -2.7835   54.9556   75.4530 C.ar    1  UNL1        0.2253
     32 C          -1.8145   55.1882   76.4194 C.ar    1  UNL1        0.0764
     33 C          -1.8261   56.3676   77.1540 C.ar    1  UNL1        0.0080
     34 C          -2.8119   57.3182   76.9181 C.ar    1  UNL1        0.0118
     35 C          -3.7818   57.0875   75.9494 C.ar    1  UNL1        0.0636
     36 C          -3.7677   55.9065   75.2175 C.ar    1  UNL1        0.0806
     37 C          -0.8545   53.0654   75.8907 C.ar    1  UNL1        0.0500
     38 C          -1.8568   52.8885   74.9372 C.ar    1  UNL1        0.1973
     39 C          -1.9229   51.6476   74.0828 C.3     1  UNL1        0.0964
     40 C          -1.1010   50.5082   74.6906 C.3     1  UNL1        0.0114
     41 C           0.2975   51.0372   74.9695 C.3     1  UNL1        0.0055
     42 C           0.2052   52.0218   76.1389 C.3     1  UNL1        0.0333
     43 CL         -4.9998   58.2615   75.6553 Cl      1  UNL1       -0.0820
     44 H          -3.4729   53.6871   74.0692 H       1  UNL1        0.4532
@<TRIPOS>UNITY_ATOM_ATTR
1 1
charge 1
30 1
charge 1
@<TRIPOS>BOND
     1     6     5    1
     2    12    13   ar
     3     5     4    1
     4     4     1    1
     5    17    18   ar
     6    29    32   ar
     7    13    10   ar
     8    31    30   ar
     9    30    38   ar
    10    37    29   ar
    11    18    19   ar
    12    14    15   ar
    13    31    32   ar
    14    19    20   ar
    15    32    33   ar
    16    11    15   ar
    17    33    34   ar
    18    20    21   ar
    19    34    35   ar
    20    35    36   ar
    21    36    31   ar
    22    37    38   ar
    23    21    22   ar
    24    22    17   ar
    25    14    12   ar
    26    12     9    1
    27    15    16   ar
    28     9     8    1
    29    37    42    1
    30    38    39    1
    31    39    40    1
    32    40    41    1
    33    41    42    1
    34    16    18   ar
    35    35    43    1
    36     8     7    1
    37     1    24    1
    38    17    14   ar
    39    24    25    1
    40     7     6    1
    41    25    26    1
    42    10    11   ar
    43    26    27    1
    44    27    29    1
    45     1     2    1
    46     1     3    1
    47    16    23    1
    48    30    44    1
    49    27    28    1
@<TRIPOS>MOLECULE
BDB50271517
 44 50 0 0 0
SMALL
GASTEIGER

@<TRIPOS>ATOM
      1 C          -2.3348   60.2076   73.8446 C.ar    1  UNL1       -0.0205
      2 C          -2.5940   59.2733   74.8411 C.ar    1  UNL1       -0.0045
      3 C          -4.6489   60.4100   75.3883 C.ar    1  UNL1       -0.0205
      4 C          -4.3824   61.3514   74.3996 C.ar    1  UNL1       -0.0045
      5 C          -3.2291   61.2512   73.6308 C.ar    1  UNL1       -0.0045
      6 C          -3.7486   59.3746   75.6122 C.ar    1  UNL1       -0.0045
      7 C          -1.1020   60.0892   72.9691 C.3     1  UNL1        0.0475
      8 C          -0.9749   61.4184   72.2243 C.3     1  UNL1        0.0918
      9 N           0.4079   61.9528   72.1000 N.pl3   1  UNL1       -0.3323
     10 H           0.6812   62.6879   72.6951 H       1  UNL1        0.1468
     11 C           2.2984   64.6061   69.4472 C.ar    1  UNL1        0.0004
     12 C           3.2073   64.1729   68.4909 C.ar    1  UNL1        0.0061
     13 C           3.5241   62.8243   68.4080 C.ar    1  UNL1        0.0692
     14 C           1.7083   63.6913   70.3122 C.ar    1  UNL1        0.0071
     15 C           2.0222   62.3385   70.2330 C.ar    1  UNL1        0.0764
     16 C           2.9355   61.9129   69.2769 C.ar    1  UNL1        0.2245
     17 N           3.2564   60.6352   69.1711 N.ar    1  UNL1       -0.2066
     18 C           1.4248   61.4164   71.0936 C.ar    1  UNL1        0.0517
     19 C           1.8038   60.0661   70.9567 C.ar    1  UNL1        0.0500
     20 C           2.7303   59.7190   69.9698 C.ar    1  UNL1        0.1973
     21 C           3.1619   58.2852   69.7347 C.3     1  UNL1        0.0964
     22 C           2.8295   57.3702   70.9068 C.3     1  UNL1        0.0114
     23 C           1.3754   57.5735   71.2369 C.3     1  UNL1        0.0055
     24 C           1.2577   58.9545   71.8525 C.3     1  UNL1        0.0333
     25 H           3.9023   60.3577   68.4819 H       1  UNL1        0.4532
     26 C          -5.9327   60.5125   76.1895 C.3     1  UNL1        0.0475
     27 C          -6.9062   59.5210   75.5539 C.3     1  UNL1        0.0918
     28 N          -7.9148   60.1049   74.6316 N.pl3   1  UNL1       -0.3323
     29 H          -7.8277   59.9209   73.6683 H       1  UNL1        0.1468
     30 C          -7.7614   64.2662   74.0741 C.ar    1  UNL1        0.0004
     31 C          -8.8010   65.1034   74.4571 C.ar    1  UNL1        0.0061
     32 C          -9.9308   64.5596   75.0585 C.ar    1  UNL1        0.0692
     33 C          -7.8523   62.8979   74.2882 C.ar    1  UNL1        0.0071
     34 C          -8.9841   62.3454   74.8916 C.ar    1  UNL1        0.0764
     35 C         -10.0153   63.1959   75.2727 C.ar    1  UNL1        0.2245
     36 N         -11.1084   62.7031   75.8474 N.ar    1  UNL1       -0.2066
     37 C          -9.0797   60.9758   75.0999 C.ar    1  UNL1        0.0517
     38 C         -10.2540   60.4965   75.7240 C.ar    1  UNL1        0.0500
     39 C         -11.2484   61.4134   76.0789 C.ar    1  UNL1        0.1973
     40 C         -12.5516   60.9762   76.7214 C.3     1  UNL1        0.0964
     41 C         -12.4819   59.5692   77.3015 C.3     1  UNL1        0.0114
     42 C         -11.9476   58.6659   76.2234 C.3     1  UNL1        0.0055
     43 C         -10.4844   59.0213   76.0442 C.3     1  UNL1        0.0333
     44 H         -11.8322   63.3179   76.1069 H       1  UNL1        0.4532
@<TRIPOS>UNITY_ATOM_ATTR
17 1
charge 1
36 1
charge 1
@<TRIPOS>BOND
     1    16    17   ar
     2    17    20   ar
     3    30    31   ar
     4    12    13   ar
     5    31    32   ar
     6    32    35   ar
     7    19    18   ar
     8    34    33   ar
     9    33    30   ar
    10    18    15   ar
    11    19    20   ar
    12    34    35   ar
    13    13    16   ar
    14    35    36   ar
    15    36    39   ar
    16     7     8    1
    17    38    37   ar
    18    37    34   ar
    19    38    39   ar
    20    15    14   ar
    21    14    11   ar
    22    11    12   ar
    23    19    24    1
    24    20    21    1
    25    38    43    1
    26    39    40    1
    27    40    41    1
    28    41    42    1
    29    42    43    1
    30    21    22    1
    31    37    28    1
    32    22    23    1
    33    28    27    1
    34    23    24    1
    35    27    26    1
    36    18     9    1
    37    26     3    1
    38    15    16   ar
    39     3     4   ar
    40     7     1    1
    41     4     5   ar
    42     5     1   ar
    43     1     2   ar
    44     8     9    1
    45     2     6   ar
    46     6     3   ar
    47     9    10    1
    48    17    25    1
    49    36    44    1
    50    28    29    1
@<TRIPOS>MOLECULE
BDB50055191
 13 13 0 0 0
SMALL
GASTEIGER

@<TRIPOS>ATOM
      1 C           3.1014   64.0510   69.3740 C.ar    1  UNL1        0.1688
      2 C           2.3162   65.1856   69.2068 C.ar    1  UNL1        0.0995
      3 C           2.9155   66.4137   68.9542 C.ar    1  UNL1        0.1394
      4 C           4.2996   66.5074   68.8687 C.ar    1  UNL1        0.0370
      5 C           5.0846   65.3729   69.0359 C.ar    1  UNL1        0.0090
      6 C           4.4854   64.1446   69.2884 C.ar    1  UNL1        0.0632
      7 O           2.1316   67.5475   68.7871 O.3     1  UNL1       -0.5053
      8 H           1.1985   67.4846   68.8447 H       1  UNL1        0.2922
      9 N           2.4826   62.7819   69.6351 N.pl3   1  UNL1       -0.3156
     10 C           1.0353   62.9988   69.8042 C.3     1  UNL1        0.3352
     11 C           2.7042   62.4911   71.0615 C.3     1  UNL1        0.3352
     12 C           2.8669   61.6857   68.7257 C.3     1  UNL1        0.2562
     13 C           2.4954   60.3254   69.3514 C.3     1  UNL1        0.0853
@<TRIPOS>UNITY_ATOM_ATTR
9 1
charge 1
@<TRIPOS>BOND
     1     9    10    1
     2     9    11    1
     3     1     2   ar
     4     2     3   ar
     5     3     4   ar
     6     4     5   ar
     7     5     6   ar
     8     1     6   ar
     9     3     7    1
    10     9     1    1
    11    12    13    1
    12     9    12    1
    13     7     8    1
@<TRIPOS>MOLECULE
BDB50055162
 13 13 0 0 0
SMALL
GASTEIGER

@<TRIPOS>ATOM
      1 C          -0.2237   59.9564   74.5416 C.ar    1  UNL1        0.0694
      2 C          -1.4775   59.8528   75.1763 C.ar    1  UNL1        0.1647
      3 C          -0.1350   60.5416   73.2816 C.ar    1  UNL1        0.1402
      4 C           1.0904   59.4717   75.1147 C.3     1  UNL1        0.0403
      5 C          -2.5937   60.3480   74.5058 C.ar    1  UNL1        0.0628
      6 C          -2.4989   60.9316   73.2511 C.ar    1  UNL1        0.0090
      7 C          -1.2624   61.0286   72.6352 C.ar    1  UNL1        0.0370
      8 N          -1.7866   59.2561   76.5303 N.pl3   1  UNL1       -0.3102
      9 C          -1.5728   57.8336   76.8864 C.3     1  UNL1        0.3353
     10 C          -1.2538   60.1799   77.5438 C.3     1  UNL1        0.3353
     11 C          -3.1618   59.6792   76.8347 C.3     1  UNL1        0.3353
     12 O           1.1174   60.6339   72.6652 O.3     1  UNL1       -0.4715
     13 C           0.9729   60.9636   71.2788 C.3     1  UNL1        0.2525
@<TRIPOS>UNITY_ATOM_ATTR
8 1
charge 1
@<TRIPOS>BOND
     1     2     1   ar
     2     8     2    1
     3     3     1   ar
     4    12     3    1
     5     4     1    1
     6     5     2   ar
     7     9     8    1
     8    10     8    1
     9    11     8    1
    10     6     7   ar
    11     7     3   ar
    12    13    12    1
    13     6     5   ar
@<TRIPOS>MOLECULE
BDB50318720
 41 46 0 0 0
SMALL
GASTEIGER

@<TRIPOS>ATOM
      1 C          -4.9141   58.0458   76.0646 C.3     1  UNL1        0.0018
      2 C          -3.9514   58.4499   74.9440 C.3     1  UNL1        0.0212
      3 C          -3.9753   59.9314   75.0780 C.3     1  UNL1        0.0870
      4 N          -2.7868   60.5923   75.5813 N.pl3   1  UNL1       -0.3326
      5 H          -2.8830   61.3695   76.1780 H       1  UNL1        0.1468
      6 C           0.0710   61.1880   71.4497 C.ar    1  UNL1        0.0061
      7 C           0.8428   60.4194   72.3112 C.ar    1  UNL1        0.0692
      8 C          -1.6827   61.2508   73.0954 C.ar    1  UNL1        0.0071
      9 C          -1.1934   61.6056   71.8444 C.ar    1  UNL1        0.0004
     10 C          -0.9125   60.4806   73.9610 C.ar    1  UNL1        0.0764
     11 C           0.3527   60.0669   73.5619 C.ar    1  UNL1        0.2245
     12 N           1.1111   59.3367   74.3662 N.ar    1  UNL1       -0.2066
     13 C          -1.4071   60.1129   75.2092 C.ar    1  UNL1        0.0517
     14 C           0.6837   58.9642   75.5618 C.ar    1  UNL1        0.1973
     15 C          -0.5742   59.3180   76.0222 C.ar    1  UNL1        0.0500
     16 C          -0.9349   58.7882   77.3946 C.3     1  UNL1        0.0333
     17 C           1.5918   58.1506   76.4330 C.3     1  UNL1        0.0964
     18 C          -0.2474   59.6091   78.4876 C.3     1  UNL1        0.0049
     19 C           2.1080   59.0014   77.6198 C.3     1  UNL1        0.0111
     20 C           1.1277   59.0119   78.8194 C.3     1  UNL1        0.0009
     21 H           2.0097   59.0662   74.0686 H       1  UNL1        0.4532
     22 C          -4.5537   56.7055   76.6027 C.3     1  UNL1        0.0018
     23 C          -3.5712   56.0033   75.6607 C.3     1  UNL1        0.0212
     24 C          -2.5527   55.5018   76.6257 C.3     1  UNL1        0.0870
     25 N          -1.1827   55.3694   76.1542 N.pl3   1  UNL1       -0.3328
     26 H          -0.8096   56.0494   75.5479 H       1  UNL1        0.1468
     27 C           2.3075   54.1409   79.8188 C.ar    1  UNL1        0.1006
     28 N           2.1384   53.0895   79.0273 N.ar    1  UNL1       -0.2250
     29 C           0.7207   55.3384   78.5119 C.ar    1  UNL1        0.0059
     30 C           1.5978   55.3057   79.5818 C.ar    1  UNL1        0.0208
     31 C           0.5501   54.2303   77.6864 C.ar    1  UNL1        0.0486
     32 C           1.3007   53.1003   77.9941 C.ar    1  UNL1        0.1630
     33 N           1.2034   52.0045   77.2585 N.ar    1  UNL1       -0.2312
     34 C          -0.3246   54.2010   76.5834 C.ar    1  UNL1        0.0447
     35 C           0.3937   51.9326   76.2136 C.ar    1  UNL1        0.0578
     36 C          -0.3904   53.0175   75.8475 C.ar    1  UNL1        0.0046
     37 C          -1.2948   52.9083   74.6536 C.3     1  UNL1        0.0288
     38 C           0.3606   50.6619   75.4335 C.3     1  UNL1        0.0456
     39 C          -2.4608   51.9394   74.9325 C.3     1  UNL1        0.0048
     40 C          -0.9723   49.9312   75.6437 C.3     1  UNL1        0.0063
     41 C          -2.0699   50.4603   74.6946 C.3     1  UNL1        0.0007
@<TRIPOS>UNITY_ATOM_ATTR
12 1
charge 1
@<TRIPOS>BOND
     1    34    31   ar
     2    15    13   ar
     3    34    25    1
     4    13    10   ar
     5     8     9   ar
     6     2     1    1
     7    13     4    1
     8     1    22    1
     9     9     6   ar
    10    22    23    1
    11     7    11   ar
    12    23    24    1
    13    24    25    1
    14    27    28   ar
    15     2     3    1
    16     3     4    1
    17    28    32   ar
    18    14    15   ar
    19    31    29   ar
    20    15    16    1
    21    10    11   ar
    22    14    17    1
    23    29    30   ar
    24    16    18    1
    25    30    27   ar
    26    17    19    1
    27    10     8   ar
    28    18    20    1
    29    19    20    1
    30    11    12   ar
    31    31    32   ar
    32    35    36   ar
    33    12    14   ar
    34    36    37    1
    35    32    33   ar
    36    35    38    1
    37    33    35   ar
    38    37    39    1
    39     6     7   ar
    40    38    40    1
    41    36    34   ar
    42    39    41    1
    43    40    41    1
    44    12    21    1
    45     4     5    1
    46    25    26    1
@<TRIPOS>MOLECULE
BDB50110300
 36 40 0 0 0
SMALL
GASTEIGER

@<TRIPOS>ATOM
      1 C          -0.8829   61.0072   72.2887 C.3     1  UNL1        0.0918
      2 N          -1.0696   61.3493   73.7156 N.pl3   1  UNL1       -0.3323
      3 H          -0.9163   62.2794   73.9996 H       1  UNL1        0.1468
      4 C          -1.4894   60.3261   74.7682 C.ar    1  UNL1        0.0517
      5 N          -2.4525   58.4616   76.5724 N.ar    1  UNL1       -0.2066
      6 C          -0.6123   59.5869   75.5880 C.ar    1  UNL1        0.0500
      7 C          -2.8552   60.0908   74.9183 C.ar    1  UNL1        0.0764
      8 C          -1.1463   58.6564   76.4840 C.ar    1  UNL1        0.1973
      9 C          -3.3072   59.1453   75.8299 C.ar    1  UNL1        0.2245
     10 C           0.9044   59.7753   75.5670 C.3     1  UNL1        0.0333
     11 C          -3.7829   60.7783   74.1419 C.ar    1  UNL1        0.0071
     12 C          -0.2723   57.8140   77.3929 C.3     1  UNL1        0.0964
     13 C          -4.6657   58.8907   75.9674 C.ar    1  UNL1        0.0692
     14 C           1.6643   58.5871   76.1269 C.3     1  UNL1        0.0055
     15 C          -5.1428   60.5240   74.2748 C.ar    1  UNL1        0.0004
     16 C           1.1442   58.3593   77.5206 C.3     1  UNL1        0.0114
     17 C          -5.5871   59.5782   75.1892 C.ar    1  UNL1        0.0061
     18 H          -2.7963   57.7912   77.2062 H       1  UNL1        0.4532
     19 C           0.3564   60.1780   71.9603 C.3     1  UNL1        0.0475
     20 C           2.7716   62.6224   69.3898 C.ar    1  UNL1        0.1385
     21 C           1.1803   61.0606   71.0560 C.ar    1  UNL1       -0.0203
     22 C           2.0320   63.2136   70.4095 C.ar    1  UNL1        0.0366
     23 C           2.7062   61.2488   69.1959 C.ar    1  UNL1        0.0366
     24 C           1.9107   60.4727   70.0286 C.ar    1  UNL1       -0.0011
     25 C           1.2367   62.4359   71.2448 C.ar    1  UNL1       -0.0011
     26 O           3.5853   63.4049   68.5650 O.3     1  UNL1       -0.4752
     27 C           4.6155   64.0038   69.3548 C.3     1  UNL1        0.2115
     28 C           5.0804   65.3292   68.7284 C.3     1  UNL1        0.1081
     29 C           3.8898   66.3100   68.7295 C.3     1  UNL1        0.1092
     30 N           3.7025   66.8967   67.3944 N.4     1  UNL1        0.2759
     31 C           3.1555   68.2610   67.5315 C.3     1  UNL1        0.1053
     32 C           4.9994   66.9292   66.6895 C.3     1  UNL1        0.1053
     33 C           4.8106   67.5012   65.2726 C.3     1  UNL1        0.0611
     34 C           2.9144   68.8701   66.1381 C.3     1  UNL1        0.0611
     35 C           4.2462   68.9241   65.3780 C.3     1  UNL1        0.0122
     36 H           3.0470   66.3320   66.8541 H       1  UNL1        0.2067
@<TRIPOS>UNITY_ATOM_ATTR
5 1
charge 1
30 1
charge 1
@<TRIPOS>BOND
     1     5     9   ar
     2     6     4   ar
     3     7     4   ar
     4     8     6   ar
     5     9     7   ar
     6    30    29    1
     7     2     4    1
     8    20    22   ar
     9    21    19    1
    10    10     6    1
    11    22    25   ar
    12    23    24   ar
    13    24    21   ar
    14    25    21   ar
    15     1     2    1
    16    29    28    1
    17    11     7   ar
    18    28    27    1
    19    26    20    1
    20    12     8    1
    21    31    30    1
    22    32    30    1
    23    13     9   ar
    24    19     1    1
    25    27    26    1
    26    14    10    1
    27    15    11   ar
    28    33    32    1
    29    34    31    1
    30    16    14    1
    31    17    15   ar
    32    35    33    1
    33     8     5   ar
    34    17    13   ar
    35    12    16    1
    36    23    20   ar
    37    35    34    1
    38     5    18    1
    39    30    36    1
    40     2     3    1
@<TRIPOS>MOLECULE
BDB50271324
 42 47 0 0 0
SMALL
GASTEIGER

@<TRIPOS>ATOM
      1 C          -3.1303   59.9683   74.4012 C.3     1  UNL1        0.1023
      2 N          -4.2223   60.6111   75.1343 N.4     1  UNL1        0.2543
      3 H          -5.1151   60.2110   74.8457 H       1  UNL1        0.2035
      4 H          -4.2369   61.6123   74.9400 H       1  UNL1        0.2035
      5 C          -4.0150   60.3787   76.5424 C.3     1  UNL1        0.1032
      6 C          -3.1577   59.1332   76.7827 C.3     1  UNL1        0.0728
      7 C          -2.2276   59.5455   77.9046 C.3     1  UNL1        0.0683
      8 S          -1.3613   58.1805   78.7125 S.3     1  UNL1       -0.1137
      9 C          -2.5381   54.2001   77.5710 C.ar    1  UNL1        0.0001
     10 C          -1.8182   53.3433   76.7472 C.ar    1  UNL1        0.0015
     11 C          -0.6077   53.7573   76.2061 C.ar    1  UNL1        0.0191
     12 C          -2.0460   55.4686   77.8546 C.ar    1  UNL1        0.0020
     13 C          -0.8347   55.8813   77.3128 C.ar    1  UNL1        0.0230
     14 C          -0.1174   55.0258   76.4895 C.ar    1  UNL1        0.0813
     15 N           1.0355   55.4118   75.9654 N.ar    1  UNL1       -0.2500
     16 C          -0.3421   57.1463   77.6026 C.ar    1  UNL1        0.0238
     17 C           0.8852   57.5191   77.0348 C.ar    1  UNL1       -0.0029
     18 C           1.5504   56.6095   76.2093 C.ar    1  UNL1        0.0554
     19 C           2.8653   56.9490   75.5383 C.3     1  UNL1        0.0455
     20 C           3.5515   58.1509   76.1815 C.3     1  UNL1        0.0066
     21 C           2.5377   59.2649   76.2508 C.3     1  UNL1        0.0051
     22 C           1.5153   58.8665   77.3024 C.3     1  UNL1        0.0281
     23 C          -2.6906   60.9271   73.3183 C.3     1  UNL1        0.0626
     24 C          -1.3449   60.5280   72.7026 C.3     1  UNL1        0.0273
     25 C          -0.9127   61.7923   71.9947 C.3     1  UNL1        0.0872
     26 N           0.5231   62.0910   72.0326 N.pl3   1  UNL1       -0.3326
     27 H           0.8690   62.6782   72.7430 H       1  UNL1        0.1468
     28 C           1.6215   57.8405   71.6211 C.ar    1  UNL1        0.0004
     29 C           2.5171   57.4473   70.6404 C.ar    1  UNL1        0.0061
     30 C           3.0613   58.4078   69.7981 C.ar    1  UNL1        0.0692
     31 C           1.2860   59.1798   71.7425 C.ar    1  UNL1        0.0071
     32 C           1.8200   60.1627   70.9069 C.ar    1  UNL1        0.0764
     33 C           2.7176   59.7457   69.9292 C.ar    1  UNL1        0.2245
     34 N           3.2713   60.6180   69.0976 N.ar    1  UNL1       -0.2066
     35 C           1.4934   61.5233   71.0107 C.ar    1  UNL1        0.0517
     36 C           2.1030   62.4032   70.1106 C.ar    1  UNL1        0.0500
     37 C           2.9948   61.9084   69.1585 C.ar    1  UNL1        0.1973
     38 C           3.6914   62.8126   68.1695 C.3     1  UNL1        0.0964
     39 C           2.9872   64.1590   68.0394 C.3     1  UNL1        0.0114
     40 C           2.8280   64.7268   69.4358 C.3     1  UNL1        0.0055
     41 C           1.7801   63.8843   70.1668 C.3     1  UNL1        0.0333
     42 H           3.9052   60.2954   68.4169 H       1  UNL1        0.4532
@<TRIPOS>UNITY_ATOM_ATTR
2 1
charge 1
34 1
charge 1
@<TRIPOS>BOND
     1    24    23    1
     2    35    32   ar
     3    23     1    1
     4    36    37   ar
     5     1     2    1
     6    32    31   ar
     7     2     5    1
     8    31    28   ar
     9     5     6    1
    10     6     7    1
    11    29    30   ar
    12     7     8    1
    13    32    33   ar
    14    30    33   ar
    15     9    10   ar
    16    36    41    1
    17    10    11   ar
    18    11    14   ar
    19    37    38    1
    20    13    12   ar
    21    12     9   ar
    22    38    39    1
    23    39    40    1
    24    13    14   ar
    25    40    41    1
    26    14    15   ar
    27    15    18   ar
    28    33    34   ar
    29    17    16   ar
    30    16    13   ar
    31    17    18   ar
    32    35    26    1
    33    34    37   ar
    34    26    25    1
    35    28    29   ar
    36    25    24    1
    37    36    35   ar
    38    17    22    1
    39    18    19    1
    40    19    20    1
    41    20    21    1
    42    21    22    1
    43    16     8    1
    44    34    42    1
    45    26    27    1
    46     2     3    1
    47     2     4    1
@<TRIPOS>MOLECULE
BDB50055185
 13 13 0 0 0
SMALL
GASTEIGER

@<TRIPOS>ATOM
      1 C           2.9114   64.2820   69.4320 C.ar    1  UNL1        0.1648
      2 C           2.0452   65.3048   69.0644 C.ar    1  UNL1        0.0992
      3 C           4.2841   64.4994   69.4298 C.ar    1  UNL1        0.0358
      4 C           4.7910   65.7393   69.0600 C.ar    1  UNL1        0.0045
      5 C           2.5522   66.5449   68.6945 C.ar    1  UNL1        0.1394
      6 C           3.9248   66.7621   68.6923 C.ar    1  UNL1        0.0367
      7 O           1.6874   67.5673   68.3271 O.3     1  UNL1       -0.5053
      8 C           5.2174   63.3967   69.8261 C.3     1  UNL1        0.0370
      9 H           0.7618   67.4213   68.3284 H       1  UNL1        0.2922
     10 N           2.3883   62.9995   69.8146 N.pl3   1  UNL1       -0.3102
     11 C           2.7954   62.4991   71.1368 C.3     1  UNL1        0.3353
     12 C           2.5562   62.0594   68.6944 C.3     1  UNL1        0.3353
     13 C           0.9300   63.0736   69.6372 C.3     1  UNL1        0.3353
@<TRIPOS>UNITY_ATOM_ATTR
10 1
charge 1
@<TRIPOS>BOND
     1    10     1    1
     2     2     1   ar
     3     3     1   ar
     4     4     3   ar
     5     5     2   ar
     6     6     4   ar
     7     7     5    1
     8    11    10    1
     9    12    10    1
    10    13    10    1
    11     8     3    1
    12     6     5   ar
    13     7     9    1
@<TRIPOS>MOLECULE
BDB50166995
 40 44 0 0 0
SMALL
GASTEIGER

@<TRIPOS>ATOM
      1 C          -2.4352   59.3642   74.2089 C.3     1  UNL1        0.0001
      2 C          -1.3049   60.3535   73.9640 C.3     1  UNL1        0.0017
      3 C          -1.7939   61.6648   73.3169 C.3     1  UNL1        0.0212
      4 C          -1.0672   61.6850   71.9817 C.3     1  UNL1        0.0870
      5 N           0.3640   62.0402   72.0145 N.pl3   1  UNL1       -0.3326
      6 H           0.6712   62.6916   72.6858 H       1  UNL1        0.1468
      7 C           1.3897   61.4440   71.0556 C.ar    1  UNL1        0.0517
      8 N           3.3072   60.5685   69.2629 N.ar    1  UNL1       -0.2066
      9 C           1.7460   60.0816   70.9795 C.ar    1  UNL1        0.0500
     10 C           2.0368   62.3236   70.1888 C.ar    1  UNL1        0.0764
     11 C           2.7191   59.6876   70.0572 C.ar    1  UNL1        0.1973
     12 C           2.9963   61.8529   69.3019 C.ar    1  UNL1        0.2245
     13 C           1.1016   58.9992   71.8479 C.3     1  UNL1        0.0333
     14 C           1.7422   63.6829   70.2084 C.ar    1  UNL1        0.0071
     15 C           3.1661   58.2453   69.9186 C.3     1  UNL1        0.0964
     16 C           3.6518   62.7268   68.4434 C.ar    1  UNL1        0.0692
     17 C           1.9407   57.7406   71.9637 C.3     1  UNL1        0.0055
     18 C           2.3978   64.5603   69.3525 C.ar    1  UNL1        0.0004
     19 C           2.1954   57.2629   70.5605 C.3     1  UNL1        0.0114
     20 C           3.3549   64.0825   68.4671 C.ar    1  UNL1        0.0061
     21 H           3.9929   60.2595   68.6277 H       1  UNL1        0.4532
     22 C          -3.5893   60.1236   74.8949 C.3     1  UNL1        0.0018
     23 C          -3.9886   59.3557   76.1496 C.3     1  UNL1        0.0213
     24 C          -5.4330   58.8378   76.0583 C.3     1  UNL1        0.0897
     25 C          -7.1446   60.4431   75.2982 C.2     1  UNL1        0.2457
     26 O          -7.1286   59.8058   74.2398 O.2     1  UNL1       -0.2702
     27 N          -6.2559   59.9716   76.2978 N.am    1  UNL1       -0.3009
     28 H          -6.2085   60.4340   77.1657 H       1  UNL1        0.1497
     29 N          -9.6933   63.9516   75.6889 N.ar    1  UNL1       -0.2343
     30 C         -10.2572   62.7569   75.7341 C.ar    1  UNL1        0.1344
     31 C          -8.1119   61.6756   75.4449 C.ar    1  UNL1        0.0531
     32 C          -9.5048   61.5964   75.6165 C.ar    1  UNL1        0.0110
     33 C          -7.5661   62.9647   75.4039 C.ar    1  UNL1        0.0218
     34 C          -8.3871   64.0825   75.5293 C.ar    1  UNL1        0.0824
     35 CL        -11.9607   62.6335   75.9431 Cl      1  UNL1       -0.0617
     36 C         -10.2909   60.3292   75.6874 C.3     1  UNL1        0.0337
     37 C          -6.1989   63.1631   75.2378 C.ar    1  UNL1        0.0016
     38 C          -7.8500   65.3636   75.4889 C.ar    1  UNL1        0.0191
     39 C          -5.6573   64.4416   75.1969 C.ar    1  UNL1        0.0001
     40 C          -6.4849   65.5480   75.3228 C.ar    1  UNL1        0.0015
@<TRIPOS>UNITY_ATOM_ATTR
8 1
charge 1
@<TRIPOS>BOND
     1    30    29   ar
     2    31    33   ar
     3     7     5    1
     4     8    12   ar
     5     9     7   ar
     6    10     7   ar
     7    32    30   ar
     8    11     9   ar
     9    12    10   ar
    10    25    31    1
    11    33    34   ar
    12    34    29   ar
    13    26    25    2
    14     5     4    1
    15    35    30    1
    16    27    25   am
    17    13     9    1
    18    14    10   ar
    19    36    32    1
    20    15    11    1
    21    37    33   ar
    22    16    12   ar
    23    38    34   ar
    24     4     3    1
    25    24    27    1
    26     3     2    1
    27    23    24    1
    28     1    22    1
    29     2     1    1
    30    22    23    1
    31    17    13    1
    32    18    14   ar
    33    19    17    1
    34    39    40   ar
    35    20    18   ar
    36    40    38   ar
    37    31    32   ar
    38    39    37   ar
    39    11     8   ar
    40    16    20   ar
    41    19    15    1
    42     8    21    1
    43     5     6    1
    44    27    28    1
@<TRIPOS>MOLECULE
BDB50055204
 13 13 0 0 0
SMALL
GASTEIGER

@<TRIPOS>ATOM
      1 C           2.6124   65.7436   68.7028 C.ar    1  UNL1        0.0992
      2 C           3.7965   65.0261   68.5812 C.ar    1  UNL1        0.1689
      3 C           2.4734   66.9682   68.0603 C.ar    1  UNL1        0.1354
      4 C           3.5182   67.4747   67.2965 C.ar    1  UNL1        0.0122
      5 C           4.8411   65.5328   67.8174 C.ar    1  UNL1        0.0629
      6 C           4.7021   66.7571   67.1749 C.ar    1  UNL1        0.0046
      7 O           1.2909   67.6859   68.1813 O.3     1  UNL1       -0.5056
      8 C           3.3682   68.7945   66.6041 C.3     1  UNL1        0.0342
      9 H           0.5864   67.3447   68.6962 H       1  UNL1        0.2922
     10 N           3.9415   63.7601   69.2451 N.pl3   1  UNL1       -0.3099
     11 C           5.1947   63.5546   69.9877 C.3     1  UNL1        0.3353
     12 C           3.5650   62.6840   68.3136 C.3     1  UNL1        0.3353
     13 C           2.7347   63.5787   70.0663 C.3     1  UNL1        0.3353
@<TRIPOS>UNITY_ATOM_ATTR
10 1
charge 1
@<TRIPOS>BOND
     1     2     1   ar
     2    10     2    1
     3     3     1   ar
     4     4     3   ar
     5     5     2   ar
     6     6     4   ar
     7     7     3    1
     8    11    10    1
     9    12    10    1
    10    13    10    1
    11     8     4    1
    12     6     5   ar
    13     7     9    1
@<TRIPOS>MOLECULE
BDB50055180
 13 13 0 0 0
SMALL
GASTEIGER

@<TRIPOS>ATOM
      1 C           4.2855   66.7352   67.0642 C.ar    1  UNL1        0.1648
      2 C           5.1117   66.8550   65.9531 C.ar    1  UNL1        0.0994
      3 C           3.3413   67.7177   67.3373 C.ar    1  UNL1        0.0358
      4 C           3.2230   68.8202   66.4997 C.ar    1  UNL1        0.0045
      5 C           4.9934   67.9577   65.1153 C.ar    1  UNL1        0.1444
      6 C           4.0493   68.9401   65.3886 C.ar    1  UNL1        0.0370
      7 C           2.4510   67.5882   68.5350 C.3     1  UNL1        0.0370
      8 N           4.4069   65.5955   67.9309 N.pl3   1  UNL1       -0.3102
      9 C           3.6629   64.3914   67.5302 C.3     1  UNL1        0.3353
     10 C           4.2186   66.0307   69.3246 C.3     1  UNL1        0.3353
     11 C           5.8475   65.3628   68.1153 C.3     1  UNL1        0.3353
     12 O           5.8257   68.0787   63.9958 O.3     1  UNL1       -0.4712
     13 C           5.3995   69.1566   63.1500 C.3     1  UNL1        0.2525
@<TRIPOS>UNITY_ATOM_ATTR
8 1
charge 1
@<TRIPOS>BOND
     1     8     1    1
     2     2     1   ar
     3     3     1   ar
     4     4     3   ar
     5     5     2   ar
     6     6     4   ar
     7     9     8    1
     8    10     8    1
     9    11     8    1
    10    12     5    1
    11     7     3    1
    12    13    12    1
    13     6     5   ar
@<TRIPOS>MOLECULE
BDB50004018
 29 32 0 0 0
SMALL
GASTEIGER

@<TRIPOS>ATOM
      1 C           4.0978   64.3797   69.3457 C.3     1  UNL1        0.0252
      2 N           3.6858   67.5846   66.4855 N.4     1  UNL1        0.2792
      3 C           4.9708   66.8571   66.5047 C.3     1  UNL1        0.1057
      4 C           3.2213   67.8441   67.8631 C.3     1  UNL1        0.1057
      5 C           4.3111   65.7318   68.6376 C.3     1  UNL1        0.0137
      6 C           2.9903   66.5101   68.5963 C.3     1  UNL1        0.0612
      7 C           4.7910   65.4950   67.2003 C.3     1  UNL1        0.0612
      8 H           2.9899   67.0173   66.0015 H       1  UNL1        0.2070
      9 C           3.8755   68.8962   65.7767 C.3     1  UNL1        0.1328
     10 C           4.1262   68.8706   64.2501 C.ar    1  UNL1        0.0326
     11 C           3.1340   68.5577   63.3282 C.ar    1  UNL1        0.0014
     12 C           5.4101   69.1782   63.8085 C.ar    1  UNL1        0.0014
     13 C           5.6986   69.1724   62.4495 C.ar    1  UNL1       -0.0001
     14 C           3.4229   68.5519   61.9681 C.ar    1  UNL1       -0.0001
     15 C           4.7046   68.8592   61.5293 C.ar    1  UNL1       -0.0000
     16 C           3.1284   63.5088   68.5194 C.3     1  UNL1        0.1136
     17 N           2.5149   62.5156   69.3555 N.ar    1  UNL1       -0.2489
     18 C           3.0778   61.2377   69.4513 C.ar    1  UNL1        0.3305
     19 C           1.3599   62.8220   70.0718 C.ar    1  UNL1        0.2656
     20 C           0.7489   61.8058   70.9151 C.ar    1  UNL1        0.0719
     21 N           2.4867   60.2607   70.2648 N.ar    1  UNL1       -0.3064
     22 C           1.3276   60.5438   70.9933 C.ar    1  UNL1        0.0647
     23 O           4.1031   60.9682   68.8144 O.2     1  UNL1       -0.2464
     24 O           0.8571   63.9490   69.9919 O.2     1  UNL1       -0.2668
     25 C          -0.4023   62.0903   71.6373 C.ar    1  UNL1        0.0062
     26 C           0.7531   59.5664   71.7949 C.ar    1  UNL1        0.0172
     27 C          -0.9772   61.1113   72.4399 C.ar    1  UNL1        0.0003
     28 C          -0.3995   59.8497   72.5186 C.ar    1  UNL1        0.0015
     29 H           2.8924   59.3655   70.3237 H       1  UNL1        0.1704
@<TRIPOS>UNITY_ATOM_ATTR
2 1
charge 1
@<TRIPOS>BOND
     1    18    17   ar
     2    19    17   ar
     3    20    19   ar
     4    21    18   ar
     5    22    20   ar
     6    16    17    1
     7     2     3    1
     8    23    18    2
     9    24    19    2
    10     9     2    1
    11     3     7    1
    12     4     6    1
    13     1    16    1
    14    25    20   ar
    15     5     1    1
    16    10     9    1
    17     6     5    1
    18     7     5    1
    19    26    22   ar
    20    11    10   ar
    21    12    10   ar
    22    27    25   ar
    23    28    27   ar
    24    13    12   ar
    25    14    11   ar
    26    15    13   ar
    27    22    21   ar
    28     2     4    1
    29    26    28   ar
    30    15    14   ar
    31    21    29    1
    32     2     8    1
@<TRIPOS>MOLECULE
BDB13544
 44 47 0 0 0
SMALL
GASTEIGER

@<TRIPOS>ATOM
      1 C          -3.1940   60.0958   75.4808 C.3     1  UNL1        0.0005
      2 C          -3.5619   58.7819   74.8018 C.3     1  UNL1        0.0000
      3 C          -3.5691   57.6377   75.8254 C.3     1  UNL1        0.0001
      4 C          -5.0099   57.1230   75.9254 C.3     1  UNL1        0.0017
      5 C          -5.7204   57.7213   77.1446 C.3     1  UNL1        0.0213
      6 C          -6.9822   58.4463   76.6499 C.3     1  UNL1        0.0897
      7 C          -6.7609   60.5877   75.4970 C.2     1  UNL1        0.2460
      8 O          -6.9205   60.0018   74.4203 O.2     1  UNL1       -0.2701
      9 N          -6.7797   59.8588   76.6913 N.am    1  UNL1       -0.3009
     10 H          -6.6541   60.3167   77.5537 H       1  UNL1        0.1497
     11 C          -5.3993   63.9679   76.3975 C.ar    1  UNL1        0.1756
     12 C          -6.1423   64.8035   75.5481 C.ar    1  UNL1        0.2061
     13 C          -7.0801   64.2327   74.6931 C.ar    1  UNL1        0.1756
     14 C          -7.2877   62.8600   74.6704 C.ar    1  UNL1        0.0448
     15 C          -6.5541   62.0363   75.5088 C.ar    1  UNL1        0.0596
     16 C          -5.6166   62.5937   76.3653 C.ar    1  UNL1        0.0448
     17 O          -6.0310   66.2421   75.4664 O.3     1  UNL1       -0.4654
     18 C          -6.3553   67.0076   76.6309 C.3     1  UNL1        0.2528
     19 O          -7.8204   65.0617   73.8473 O.3     1  UNL1       -0.4683
     20 C          -9.1899   65.1040   74.2649 C.3     1  UNL1        0.2526
     21 O          -4.4295   64.4460   77.2967 O.3     1  UNL1       -0.4683
     22 C          -4.8546   64.2535   78.6525 C.3     1  UNL1        0.2526
     23 C          -3.2085   61.2287   74.4360 C.3     1  UNL1        0.0096
     24 C          -2.4472   60.7099   73.2355 C.3     1  UNL1        0.0866
     25 N          -0.6318   61.8566   72.1386 N.am    1  UNL1       -0.2359
     26 C          -0.9956   61.0885   73.2105 C.2     1  UNL1        0.2379
     27 O          -0.1970   60.7289   74.0830 O.2     1  UNL1       -0.2736
     28 H          -1.3309   62.0945   71.4876 H       1  UNL1        0.1727
     29 N           0.6589   62.3259   71.9038 N.pl3   1  UNL1       -0.2635
     30 H           0.9706   63.0996   72.4267 H       1  UNL1        0.1700
     31 C           1.6272   61.7115   70.8793 C.ar    1  UNL1        0.0597
     32 C           1.9447   60.3567   70.7487 C.ar    1  UNL1        0.0060
     33 C           2.8381   59.9422   69.7580 C.ar    1  UNL1        0.0562
     34 C           2.8412   57.6096   70.7410 C.3     1  UNL1        0.0066
     35 C           1.4043   57.8970   71.0685 C.3     1  UNL1        0.0052
     36 C           1.3734   59.2903   71.6571 C.3     1  UNL1        0.0289
     37 C           3.2163   58.4883   69.5534 C.3     1  UNL1        0.0455
     38 C           3.1262   62.1090   69.0263 C.ar    1  UNL1        0.0821
     39 C           2.2491   62.6091   69.9832 C.ar    1  UNL1        0.0319
     40 C           1.9906   63.9590   70.0438 C.ar    1  UNL1        0.0028
     41 C           2.6055   64.8373   69.1479 C.ar    1  UNL1        0.0001
     42 C           3.4823   64.3454   68.1906 C.ar    1  UNL1        0.0015
     43 C           3.7426   62.9891   68.1284 C.ar    1  UNL1        0.0191
     44 N           3.3903   60.8305   68.9351 N.ar    1  UNL1       -0.2499
@<TRIPOS>BOND
     1    11    12   ar
     2    11    16   ar
     3    12    13   ar
     4    13    14   ar
     5    14    15   ar
     6    15    16   ar
     7    11    21    1
     8    12    17    1
     9    13    19    1
    10    17    18    1
    11    19    20    1
    12    21    22    1
    13    15     7    1
    14     7     9   am
    15     7     8    2
    16     9     6    1
    17     6     5    1
    18     5     4    1
    19     4     3    1
    20     3     2    1
    21     2     1    1
    22     1    23    1
    23    23    24    1
    24    24    26    1
    25    26    25   am
    26    25    29    1
    27    29    31    1
    28    32    31   ar
    29    31    39   ar
    30    33    44   ar
    31    38    44   ar
    32    36    32    1
    33    33    32   ar
    34    33    37    1
    35    34    35    1
    36    34    37    1
    37    35    36    1
    38    38    43   ar
    39    39    38   ar
    40    39    40   ar
    41    40    41   ar
    42    41    42   ar
    43    42    43   ar
    44    26    27    2
    45     9    10    1
    46    25    28    1
    47    29    30    1
@<TRIPOS>MOLECULE
BDB50008579
 15 16 0 0 0
SMALL
GASTEIGER

@<TRIPOS>ATOM
      1 N           3.1319   64.6049   68.9000 N.4     1  UNL1        0.2792
      2 C           4.2740   63.6854   69.0770 C.3     1  UNL1        0.1057
      3 C           2.0799   64.3154   69.8950 C.3     1  UNL1        0.1057
      4 C           1.5572   62.8804   69.6999 C.3     1  UNL1        0.0611
      5 C           3.8145   62.2318   68.8600 C.3     1  UNL1        0.0611
      6 C           2.7216   61.8987   69.8838 C.3     1  UNL1        0.0118
      7 C           2.2256   60.4575   69.6646 C.3     1  UNL1        0.0004
      8 H           2.7470   64.4805   67.9636 H       1  UNL1        0.2070
      9 C           3.6071   66.0185   69.0859 C.3     1  UNL1        0.1328
     10 C           3.8552   66.8766   67.8226 C.ar    1  UNL1        0.0326
     11 C           4.8324   66.5700   66.8827 C.ar    1  UNL1        0.0014
     12 C           3.0504   67.9985   67.6444 C.ar    1  UNL1        0.0014
     13 C           3.2239   68.8096   66.5299 C.ar    1  UNL1       -0.0001
     14 C           5.0060   67.3818   65.7672 C.ar    1  UNL1       -0.0001
     15 C           4.2020   68.5010   65.5912 C.ar    1  UNL1       -0.0000
@<TRIPOS>UNITY_ATOM_ATTR
1 1
charge 1
@<TRIPOS>BOND
     1     9     1    1
     2     2     1    1
     3     3     1    1
     4    10     9    1
     5     4     3    1
     6     5     2    1
     7     6     4    1
     8    11    10   ar
     9    12    10   ar
    10     7     6    1
    11    13    12   ar
    12    14    11   ar
    13    15    13   ar
    14     6     5    1
    15    15    14   ar
    16     1     8    1
@<TRIPOS>MOLECULE
BDB50003996
 34 37 0 0 0
SMALL
GASTEIGER

@<TRIPOS>ATOM
      1 C           0.1122   59.8881   74.8102 C.2     1  UNL1        0.2527
      2 N          -1.0547   60.0262   73.8787 N.am    1  UNL1       -0.2552
      3 O           1.2055   59.9785   74.2402 O.2     1  UNL1       -0.2696
      4 C           0.6941   59.0914   79.0083 C.ar    1  UNL1        0.1429
      5 C           0.2393   59.6594   76.3205 C.ar    1  UNL1        0.0540
      6 C           1.5385   58.5687   78.0361 C.ar    1  UNL1        0.0242
      7 C          -0.3767   59.8970   78.6396 C.ar    1  UNL1        0.0242
      8 C          -0.6032   60.1802   77.2981 C.ar    1  UNL1        0.0062
      9 C           1.3120   58.8519   76.6945 C.ar    1  UNL1        0.0062
     10 N           0.9212   58.8070   80.3570 N.pl3   1  UNL1        0.0577
     11 O           0.2009   59.2418   81.1782 O.2     1  UNL1       -0.1261
     12 O           1.8321   58.1333   80.6712 O.2     1  UNL1       -0.1261
     13 C          -2.5548   59.9677   74.2155 C.ar    1  UNL1        0.0541
     14 C          -3.1083   58.8298   74.8023 C.ar    1  UNL1        0.0149
     15 C          -3.3782   61.0588   73.9337 C.ar    1  UNL1        0.0149
     16 C          -4.7343   61.0119   74.2346 C.ar    1  UNL1        0.0013
     17 C          -4.4645   58.7828   75.1032 C.ar    1  UNL1        0.0013
     18 C          -5.2772   59.8738   74.8193 C.ar    1  UNL1        0.0001
     19 C          -0.5123   60.2435   72.4768 C.3     1  UNL1        0.0985
     20 C          -0.6233   61.6080   71.7410 C.3     1  UNL1        0.0223
     21 N           2.7145   63.7506   70.0431 N.4     1  UNL1        0.2792
     22 C           3.0157   62.7398   71.0769 C.3     1  UNL1        0.1057
     23 C           1.6932   63.2395   69.1066 C.3     1  UNL1        0.1057
     24 C           0.6662   61.8940   70.9474 C.3     1  UNL1        0.0135
     25 C           1.7467   62.4337   71.8932 C.3     1  UNL1        0.0612
     26 C           0.3864   62.9460   69.8663 C.3     1  UNL1        0.0612
     27 H           2.3590   64.5928   70.4954 H       1  UNL1        0.2070
     28 C           3.9708   64.0590   69.2781 C.3     1  UNL1        0.1328
     29 C           4.0254   65.3744   68.4655 C.ar    1  UNL1        0.0326
     30 C           4.8008   65.5223   67.3213 C.ar    1  UNL1        0.0014
     31 C           3.2548   66.4399   68.9226 C.ar    1  UNL1        0.0014
     32 C           3.2610   67.6480   68.2366 C.ar    1  UNL1       -0.0001
     33 C           4.8069   66.7315   66.6347 C.ar    1  UNL1       -0.0001
     34 C           4.0373   67.7936   67.0924 C.ar    1  UNL1       -0.0000
@<TRIPOS>UNITY_ATOM_ATTR
21 1
charge 1
@<TRIPOS>BOND
     1     1     5    1
     2     2     1   am
     3    21    23    1
     4     4    10    1
     5    19     2    1
     6     5     8   ar
     7    11    10    2
     8    12    10    2
     9     3     1    2
    10    13     2    1
    11     6     4   ar
    12     7     4   ar
    13     8     7   ar
    14     9     6   ar
    15    28    21    1
    16    22    25    1
    17    23    26    1
    18    20    19    1
    19    24    20    1
    20    29    28    1
    21    25    24    1
    22    26    24    1
    23    14    13   ar
    24    15    13   ar
    25    30    29   ar
    26    31    29   ar
    27    16    15   ar
    28    17    14   ar
    29    32    31   ar
    30    33    30   ar
    31    34    32   ar
    32    18    16   ar
    33     5     9   ar
    34    18    17   ar
    35    22    21    1
    36    34    33   ar
    37    21    27    1
@<TRIPOS>MOLECULE
BDB50039729
 27 30 0 0 0
SMALL
GASTEIGER

@<TRIPOS>ATOM
      1 N           3.8338   67.6679   66.2918 N.4     1  UNL1        0.2792
      2 C           3.5745   67.9635   67.7154 C.3     1  UNL1        0.1057
      3 C           5.1056   66.9323   66.1429 C.3     1  UNL1        0.1057
      4 C           4.7587   65.8629   68.3757 C.3     1  UNL1        0.0122
      5 C           5.0225   65.5887   66.8899 C.3     1  UNL1        0.0611
      6 C           3.4490   66.6496   68.5086 C.3     1  UNL1        0.0611
      7 H           3.0733   67.0939   65.9278 H       1  UNL1        0.2070
      8 C           3.9229   68.9607   65.5309 C.3     1  UNL1        0.1328
      9 C           4.1318   68.8926   63.9993 C.ar    1  UNL1        0.0326
     10 C           3.1194   68.5382   63.1153 C.ar    1  UNL1        0.0014
     11 C           5.3984   69.2047   63.5130 C.ar    1  UNL1        0.0014
     12 C           5.6495   69.1620   62.1473 C.ar    1  UNL1       -0.0001
     13 C           3.3708   68.4955   61.7483 C.ar    1  UNL1       -0.0001
     14 C           4.6353   68.8072   61.2648 C.ar    1  UNL1       -0.0000
     15 C           4.6456   64.5288   69.1401 C.3     1  UNL1        0.0068
     16 C           3.6294   63.6136   68.4310 C.3     1  UNL1        0.0493
     17 C           2.1326   62.1680   69.9318 C.ar    1  UNL1        0.0535
     18 N           1.5440   64.2442   69.7175 N.ar    1  UNL1       -0.0814
     19 C           1.0070   62.4545   70.6426 C.ar    1  UNL1        0.1762
     20 O           0.7091   63.7050   70.4734 O.2     1  UNL1       -0.3537
     21 C           2.4656   63.3582   69.3337 C.ar    1  UNL1        0.1005
     22 C           2.7157   60.9141   69.8998 C.ar    1  UNL1       -0.0002
     23 C           0.3638   61.4855   71.3933 C.ar    1  UNL1        0.0357
     24 C           2.0815   59.9243   70.6504 C.ar    1  UNL1       -0.0256
     25 C           0.9231   60.2069   71.3857 C.ar    1  UNL1       -0.0227
     26 C           2.6491   58.5379   70.6697 C.3     1  UNL1        0.0307
     27 C           0.2697   59.1176   72.1802 C.3     1  UNL1        0.0308
@<TRIPOS>UNITY_ATOM_ATTR
1 1
charge 1
@<TRIPOS>BOND
     1    18    21   ar
     2    19    17   ar
     3    20    19   ar
     4    21    17   ar
     5    22    17   ar
     6     1     2    1
     7    23    19   ar
     8    24    22   ar
     9    25    24   ar
    10    16    21    1
    11     8     1    1
    12     2     6    1
    13     3     5    1
    14    15    16    1
    15     9     8    1
    16     4    15    1
    17     5     4    1
    18     6     4    1
    19    26    24    1
    20    27    25    1
    21    10     9   ar
    22    11     9   ar
    23    12    11   ar
    24    13    10   ar
    25    14    12   ar
    26    20    18   ar
    27    25    23   ar
    28     1     3    1
    29    14    13   ar
    30     1     7    1
@<TRIPOS>MOLECULE
BDB50265255
 53 58 0 0 0
SMALL
GASTEIGER

@<TRIPOS>ATOM
      1 C           1.4277   60.9893   77.0812 C.3     1  UNL1        0.1271
      2 N           2.1070   60.6796   75.7982 N.4     1  UNL1        0.2347
      3 H           2.1041   59.6710   75.6468 H       1  UNL1        0.2007
      4 H           3.0695   61.0154   75.8334 H       1  UNL1        0.2007
      5 H           1.6142   61.1398   75.0328 H       1  UNL1        0.2007
      6 C           2.1196   60.3072   78.2162 C.2     1  UNL1        0.2719
      7 N           1.3855   59.6796   79.1897 N.am    1  UNL1       -0.2981
      8 O           3.3538   60.2815   78.2587 O.2     1  UNL1       -0.2690
      9 H           0.4040   59.7559   79.1815 H       1  UNL1        0.1497
     10 C           2.0226   58.9173   80.2148 C.3     1  UNL1        0.1108
     11 C           1.2175   57.6386   80.2513 C.3     1  UNL1        0.1086
     12 N           1.9344   56.4243   79.8394 N.pl3   1  UNL1       -0.3312
     13 H           1.5721   55.5457   80.0965 H       1  UNL1        0.1469
     14 C           3.2186   56.4835   79.0284 C.ar    1  UNL1        0.0517
     15 N           5.6201   56.5431   77.6604 N.ar    1  UNL1       -0.2066
     16 C           4.4925   56.7310   76.9931 C.ar    1  UNL1        0.2245
     17 C           3.2624   56.7082   77.6419 C.ar    1  UNL1        0.0764
     18 C           2.1250   56.9260   76.8655 C.ar    1  UNL1        0.0071
     19 C           2.1920   57.1482   75.4982 C.ar    1  UNL1        0.0004
     20 C           3.4259   57.1613   74.8690 C.ar    1  UNL1        0.0061
     21 C           4.5719   56.9539   75.6237 C.ar    1  UNL1        0.0692
     22 C           4.4358   56.2985   79.6898 C.ar    1  UNL1        0.0500
     23 C           5.6285   56.3337   78.9667 C.ar    1  UNL1        0.1973
     24 C           6.9711   56.1172   79.6233 C.3     1  UNL1        0.0964
     25 C           6.9012   56.3096   81.1344 C.3     1  UNL1        0.0114
     26 C           5.7733   55.4401   81.6538 C.3     1  UNL1        0.0055
     27 C           4.4532   56.0601   81.1884 C.3     1  UNL1        0.0333
     28 H           6.4748   56.5597   77.1720 H       1  UNL1        0.4532
     29 C          -0.0254   60.5104   77.0895 C.3     1  UNL1        0.0740
     30 C          -0.3135   59.6021   75.9061 C.3     1  UNL1        0.0915
     31 N          -0.9791   60.6469   73.7742 N.am    1  UNL1       -0.3027
     32 C          -1.3248   60.2786   75.0489 C.2     1  UNL1        0.2227
     33 O          -2.4595   60.5035   75.4821 O.2     1  UNL1       -0.2751
     34 H          -0.0626   60.4785   73.4566 H       1  UNL1        0.1495
     35 C          -1.9167   61.2683   72.8979 C.3     1  UNL1        0.1106
     36 C          -1.0384   61.9031   71.8418 C.3     1  UNL1        0.1086
     37 N           0.4010   61.8639   72.1194 N.pl3   1  UNL1       -0.3312
     38 H           0.7309   62.2081   72.9807 H       1  UNL1        0.1469
     39 C           1.3977   61.3079   71.1173 C.ar    1  UNL1        0.0517
     40 N           3.2608   60.4299   69.2738 N.ar    1  UNL1       -0.2066
     41 C           2.6921   59.5517   70.0848 C.ar    1  UNL1        0.2245
     42 C           1.7494   59.9504   71.0270 C.ar    1  UNL1        0.0764
     43 C           1.1862   58.9589   71.8295 C.ar    1  UNL1        0.0071
     44 C           1.5476   57.6242   71.7202 C.ar    1  UNL1        0.0004
     45 C           2.4954   57.2478   70.7825 C.ar    1  UNL1        0.0061
     46 C           3.0608   58.2170   69.9661 C.ar    1  UNL1        0.0692
     47 C           2.0162   62.1941   70.2316 C.ar    1  UNL1        0.0500
     48 C           2.9537   61.7161   69.3158 C.ar    1  UNL1        0.1973
     49 C           3.6753   62.6315   68.3556 C.3     1  UNL1        0.0964
     50 C           2.9655   63.9732   68.2073 C.3     1  UNL1        0.0114
     51 C           2.7410   64.5292   69.5994 C.3     1  UNL1        0.0055
     52 C           1.6703   63.6710   70.2759 C.3     1  UNL1        0.0333
     53 H           3.9297   60.1177   68.6224 H       1  UNL1        0.4532
@<TRIPOS>UNITY_ATOM_ATTR
2 1
charge 1
15 1
charge 1
40 1
charge 1
@<TRIPOS>BOND
     1    43    44   ar
     2     1     2    1
     3    39    42   ar
     4     6     7   am
     5    44    45   ar
     6     6     8    2
     7    31    35    1
     8     7    10    1
     9    45    46   ar
    10    46    41   ar
    11    12    11    1
    12    11    10    1
    13    47    48   ar
    14    12    14    1
    15    14    17   ar
    16    41    40   ar
    17    16    15   ar
    18    15    23   ar
    19    22    14   ar
    20    40    48   ar
    21    47    39   ar
    22    16    17   ar
    23    37    36    1
    24    17    18   ar
    25    36    35    1
    26    18    19   ar
    27    41    42   ar
    28    19    20   ar
    29    47    52    1
    30    20    21   ar
    31    21    16   ar
    32    22    23   ar
    33    48    49    1
    34    49    50    1
    35    50    51    1
    36    51    52    1
    37    42    43   ar
    38    22    27    1
    39    23    24    1
    40    24    25    1
    41    25    26    1
    42    26    27    1
    43    29     1    1
    44    29    30    1
    45    37    39    1
    46    30    32    1
    47    32    31   am
    48     1     6    1
    49    32    33    2
    50    31    34    1
    51    37    38    1
    52    40    53    1
    53     2     3    1
    54     2     4    1
    55     2     5    1
    56     7     9    1
    57    12    13    1
    58    15    28    1
@<TRIPOS>MOLECULE
BDB8961
 18 20 0 0 0
SMALL
GASTEIGER

@<TRIPOS>ATOM
      1 C           5.1229   65.1770   68.7532 C.ar    1  UNL1        0.0071
      2 C           5.1360   66.3589   68.0223 C.ar    1  UNL1        0.0004
      3 C           3.9390   66.9547   67.6428 C.ar    1  UNL1        0.0061
      4 C           2.7285   66.3706   67.9953 C.ar    1  UNL1        0.0692
      5 C           3.9106   64.5951   69.1031 C.ar    1  UNL1        0.0762
      6 C           2.7144   65.1896   68.7273 C.ar    1  UNL1        0.2245
      7 C           3.8818   63.4150   69.8297 C.ar    1  UNL1        0.0485
      8 C           2.6540   62.8605   70.1623 C.ar    1  UNL1        0.0498
      9 C           1.4868   63.5088   69.7606 C.ar    1  UNL1        0.1973
     10 C           2.6227   61.5795   70.9586 C.3     1  UNL1        0.0333
     11 C           0.1229   62.9520   70.0849 C.3     1  UNL1        0.0964
     12 C           0.1934   61.9318   71.2241 C.3     1  UNL1        0.0114
     13 C           1.2523   60.9012   70.8638 C.3     1  UNL1        0.0055
     14 N           1.5541   64.6375   69.0620 N.ar    1  UNL1       -0.2066
     15 N           5.0966   62.7801   70.2306 N.pl3   1  UNL1       -0.3569
     16 H           0.7183   65.0775   68.7843 H       1  UNL1        0.4532
     17 H           5.9635   63.1801   69.9905 H       1  UNL1        0.1424
     18 H           5.0671   61.9425   70.7470 H       1  UNL1        0.1424
@<TRIPOS>UNITY_ATOM_ATTR
14 1
charge 1
@<TRIPOS>BOND
     1     1     2   ar
     2     1     5   ar
     3     2     3   ar
     4     3     4   ar
     5     4     6   ar
     6     7     5   ar
     7     5     6   ar
     8     6    14   ar
     9     7     8   ar
    10    14     9   ar
    11    10     8    1
    12     8     9   ar
    13     9    11    1
    14    10    13    1
    15    11    12    1
    16    12    13    1
    17     7    15    1
    18    14    16    1
    19    15    17    1
    20    15    18    1
@<TRIPOS>MOLECULE
BDB50004011
 29 32 0 0 0
SMALL
GASTEIGER

@<TRIPOS>ATOM
      1 C           3.9117   63.8841   68.7617 C.3     1  UNL1        0.0224
      2 N           3.9822   67.8727   67.1160 N.4     1  UNL1        0.2792
      3 C           4.5990   66.7985   66.3117 C.3     1  UNL1        0.1057
      4 C           2.7109   67.4076   67.7063 C.3     1  UNL1        0.1057
      5 C           3.6135   65.0796   67.8360 C.3     1  UNL1        0.0135
      6 C           4.9176   65.5901   67.2110 C.3     1  UNL1        0.0612
      7 C           2.9745   66.2154   68.6447 C.3     1  UNL1        0.0612
      8 H           4.6212   68.1343   67.8668 H       1  UNL1        0.2070
      9 C           3.7075   69.0538   66.2282 C.3     1  UNL1        0.1328
     10 C           4.0134   68.9177   64.7177 C.ar    1  UNL1        0.0326
     11 C           3.0396   68.6043   63.7765 C.ar    1  UNL1        0.0014
     12 C           5.3289   69.1230   64.3115 C.ar    1  UNL1        0.0014
     13 C           3.3785   68.4961   62.4322 C.ar    1  UNL1       -0.0001
     14 C           5.6676   69.0149   62.9684 C.ar    1  UNL1       -0.0001
     15 C           4.6919   68.7013   62.0287 C.ar    1  UNL1       -0.0000
     16 C           3.1728   62.6316   68.2456 C.3     1  UNL1        0.1015
     17 N           2.2508   62.1552   69.2345 N.am    1  UNL1       -0.2229
     18 C           1.0874   62.8278   69.6721 C.2     1  UNL1        0.2552
     19 C           2.3510   60.9336   69.9370 C.2     1  UNL1        0.2551
     20 C           0.4516   61.9898   70.6782 C.ar    1  UNL1        0.0614
     21 C           1.2103   60.8531   70.8368 C.ar    1  UNL1        0.0586
     22 C           0.8597   59.8564   71.7316 C.ar    1  UNL1        0.0078
     23 O           0.6856   63.9246   69.2734 O.2     1  UNL1       -0.2695
     24 O           3.2430   60.0902   69.8098 O.2     1  UNL1       -0.2695
     25 C          -0.7082   62.2053   71.4038 C.ar    1  UNL1        0.0416
     26 C          -1.0788   61.2128   72.3110 C.ar    1  UNL1        0.1389
     27 C          -0.3056   60.0577   72.4704 C.ar    1  UNL1        0.0371
     28 O          -2.2421   61.3745   73.0734 O.3     1  UNL1       -0.4714
     29 C          -2.4816   60.2260   73.8996 C.3     1  UNL1        0.2525
@<TRIPOS>UNITY_ATOM_ATTR
2 1
charge 1
@<TRIPOS>BOND
     1    18    17   am
     2    19    17   am
     3    20    18    1
     4    21    19    1
     5    16    17    1
     6     2     4    1
     7    22    21   ar
     8    23    18    2
     9    24    19    2
    10    25    20   ar
    11     9     2    1
    12     3     6    1
    13     4     7    1
    14    26    25   ar
    15     1    16    1
    16    27    22   ar
    17     5     1    1
    18    10     9    1
    19     6     5    1
    20     7     5    1
    21    28    26    1
    22    11    10   ar
    23    12    10   ar
    24    29    28    1
    25    13    11   ar
    26    14    12   ar
    27    15    14   ar
    28    21    20   ar
    29    26    27   ar
    30     2     3    1
    31    15    13   ar
    32     2     8    1
