@<TRIPOS>MOLECULE
BDB9012
 72 76 0 0 0
SMALL
GASTEIGER

@<TRIPOS>ATOM
      1 C           1.2971   -0.8304    0.0272 C.ar    1  UNL1        0.0287
      2 C           1.4999    0.5308    0.0107 C.ar    1  UNL1        0.0486
      3 C           0.3920    1.3437   -0.0360 C.ar    1  UNL1       -0.0240
      4 C          -0.8996    0.8389   -0.0559 C.ar    1  UNL1        0.0576
      5 C           0.0160   -1.3559    0.0245 C.ar    1  UNL1        0.2181
      6 C          -1.1510   -0.5681    0.0013 C.ar    1  UNL1        0.0857
      7 C          -2.3906   -1.2769   -0.0120 C.ar    1  UNL1        0.0513
      8 C          -1.1258   -3.3556   -0.0474 C.ar    1  UNL1        0.1877
      9 C          -2.3428   -2.6858   -0.0566 C.ar    1  UNL1        0.0408
     10 C          -1.0123   -4.8666   -0.0418 C.3     1  UNL1        0.0328
     11 C          -3.6259   -3.5128   -0.0734 C.3     1  UNL1       -0.0200
     12 C          -3.4083   -4.9488    0.4101 C.3     1  UNL1       -0.0483
     13 C          -2.3114   -5.5479   -0.4377 C.3     1  UNL1       -0.0432
     14 N          -0.0075   -2.6776    0.0023 N.ar    1  UNL1       -0.2076
     15 N          -3.8305   -0.7124    0.0577 N.pl3   1  UNL1       -0.3428
     16 C          -4.1348    0.6223    0.4312 C.3     1  UNL1        0.0091
     17 C          -5.4407    1.1874   -0.1229 C.3     1  UNL1       -0.0375
     18 C          -5.3242    2.7069    0.1390 C.3     1  UNL1       -0.0516
     19 C          -6.6285    3.4483   -0.1260 C.3     1  UNL1       -0.0526
     20 C          -6.3875    4.9653    0.0591 C.3     1  UNL1       -0.0448
     21 C          -7.7438    5.6697   -0.0417 C.3     1  UNL1        0.0240
     22 C          -7.6149    7.1648    0.0232 C.2     1  UNL1        0.2130
     23 O          -6.5039    7.7089    0.0432 O.2     1  UNL1       -0.2758
     24 N          -8.7828    7.9262    0.0310 N.am    1  UNL1       -0.3150
     25 C          -8.7381    9.3570    0.0407 C.3     1  UNL1        0.0156
     26 C         -10.1897    9.8817    0.0355 C.3     1  UNL1       -0.0101
     27 C         -10.1996   11.3803    0.0366 C.ar    1  UNL1       -0.0209
     28 C          -9.0829   12.2162    0.0337 C.ar    1  UNL1        0.0060
     29 C         -10.8683   13.4839    0.0397 C.ar    1  UNL1        0.0467
     30 C         -11.3186   12.1905    0.0402 C.ar    1  UNL1        0.0029
     31 C         -12.6651   11.8687    0.0441 C.ar    1  UNL1       -0.0523
     32 C         -13.5589   12.9391    0.0475 C.ar    1  UNL1       -0.0611
     33 C         -13.1037   14.2622    0.0471 C.ar    1  UNL1       -0.0598
     34 C         -11.7409   14.5592    0.0431 C.ar    1  UNL1       -0.0378
     35 N          -9.5403   13.4737    0.0357 N.ar    1  UNL1       -0.3604
     36 CL          3.0833    1.1989    0.0223 Cl      1  UNL1       -0.0833
     37 CL         -1.9998    2.1400   -0.1880 Cl      1  UNL1       -0.0826
     38 H           2.1093   -1.4669    0.0418 H       1  UNL1        0.0698
     39 H           0.5264    2.3667   -0.0570 H       1  UNL1        0.0647
     40 H          -0.7427   -5.1870    0.9429 H       1  UNL1        0.0372
     41 H          -0.2688   -5.1400   -0.7611 H       1  UNL1        0.0372
     42 H          -4.0016   -3.5418   -1.0749 H       1  UNL1        0.0316
     43 H          -4.3195   -3.0477    0.5955 H       1  UNL1        0.0316
     44 H          -4.3095   -5.5141    0.2955 H       1  UNL1        0.0269
     45 H          -3.1369   -4.9626    1.4450 H       1  UNL1        0.0269
     46 H          -2.2427   -6.6004   -0.2576 H       1  UNL1        0.0270
     47 H          -2.5141   -5.4023   -1.4782 H       1  UNL1        0.0270
     48 H           0.8455   -3.1686    0.0239 H       1  UNL1        0.4531
     49 H          -4.5767   -1.3130   -0.1698 H       1  UNL1        0.1461
     50 H          -3.3362    1.2482    0.0915 H       1  UNL1        0.0461
     51 H          -4.2538    0.6060    1.4944 H       1  UNL1        0.0461
     52 H          -6.2834    0.7752    0.3918 H       1  UNL1        0.0280
     53 H          -5.5867    0.9553   -1.1572 H       1  UNL1        0.0280
     54 H          -4.5659    3.1078   -0.5007 H       1  UNL1        0.0266
     55 H          -5.0796    2.8401    1.1721 H       1  UNL1        0.0266
     56 H          -7.3769    3.1166    0.5630 H       1  UNL1        0.0265
     57 H          -6.9611    3.2526   -1.1240 H       1  UNL1        0.0265
     58 H          -5.7321    5.3259   -0.7060 H       1  UNL1        0.0270
     59 H          -5.9351    5.1590    1.0092 H       1  UNL1        0.0270
     60 H          -8.3628    5.3421    0.7673 H       1  UNL1        0.0358
     61 H          -8.1739    5.4187   -0.9888 H       1  UNL1        0.0358
     62 H          -9.6556    7.4708    0.0298 H       1  UNL1        0.1487
     63 H          -8.2218    9.7097   -0.8276 H       1  UNL1        0.0465
     64 H          -8.2207    9.7060    0.9098 H       1  UNL1        0.0465
     65 H         -10.6975    9.5245    0.9069 H       1  UNL1        0.0329
     66 H         -10.6842    9.5304   -0.8460 H       1  UNL1        0.0329
     67 H          -8.0939   11.9214    0.0306 H       1  UNL1        0.0810
     68 H         -12.9900   10.8892    0.0445 H       1  UNL1        0.0624
     69 H         -14.5738   12.7521    0.0504 H       1  UNL1        0.0618
     70 H         -13.7896   15.0333    0.0498 H       1  UNL1        0.0618
     71 H         -11.3994   15.5331    0.0427 H       1  UNL1        0.0638
     72 H          -8.9724   14.2779    0.0344 H       1  UNL1        0.1653
@<TRIPOS>UNITY_ATOM_ATTR
14 1
charge 1
@<TRIPOS>BOND
     1     1     2   ar
     2     1     5   ar
     3     2     3   ar
     4     3     4   ar
     5     4     6   ar
     6    14     5   ar
     7     6     5   ar
     8     6     7   ar
     9    14     8   ar
    10     7     9   ar
    11    10     8    1
    12     9     8   ar
    13     9    11    1
    14    10    13    1
    15    11    12    1
    16    12    13    1
    17     7    15    1
    18    15    16    1
    19    16    17    1
    20    17    18    1
    21    18    19    1
    22    19    20    1
    23    20    21    1
    24    21    22    1
    25    22    24   am
    26    22    23    2
    27    24    25    1
    28    25    26    1
    29    26    27    1
    30    28    27   ar
    31    27    30   ar
    32    28    35   ar
    33    29    35   ar
    34    29    34   ar
    35    30    31   ar
    36    31    32   ar
    37    32    33   ar
    38    33    34   ar
    39    30    29   ar
    40     2    36    1
    41     4    37    1
    42     1    38    1
    43     3    39    1
    44    10    40    1
    45    10    41    1
    46    11    42    1
    47    11    43    1
    48    12    44    1
    49    12    45    1
    50    13    46    1
    51    13    47    1
    52    14    48    1
    53    15    49    1
    54    16    50    1
    55    16    51    1
    56    17    52    1
    57    17    53    1
    58    18    54    1
    59    18    55    1
    60    19    56    1
    61    19    57    1
    62    20    58    1
    63    20    59    1
    64    21    60    1
    65    21    61    1
    66    24    62    1
    67    25    63    1
    68    25    64    1
    69    26    65    1
    70    26    66    1
    71    28    67    1
    72    31    68    1
    73    32    69    1
    74    33    70    1
    75    34    71    1
    76    35    72    1
@<TRIPOS>MOLECULE
BDB50318731
 72 76 0 0 0
SMALL
GASTEIGER

@<TRIPOS>ATOM
      1 N           4.4220   11.7262   -0.0213 N.am    1  UNL1       -0.3153
      2 C           5.5142   12.5866   -0.0267 C.2     1  UNL1        0.2133
      3 O           6.6568   12.1160   -0.0210 O.2     1  UNL1       -0.2758
      4 C           5.3243   14.0701   -0.0336 C.3     1  UNL1        0.0280
      5 C           6.7131   14.7354   -0.0297 C.3     1  UNL1       -0.0174
      6 C           6.5642   16.2239   -0.0317 C.ar    1  UNL1       -0.0219
      7 N           5.6870   18.2353   -0.0336 N.ar    1  UNL1       -0.3604
      8 C           5.3651   16.9367   -0.0315 C.ar    1  UNL1        0.0059
      9 C           7.0067   18.3857   -0.0351 C.ar    1  UNL1        0.0467
     10 C           7.5911   17.1471   -0.0340 C.ar    1  UNL1        0.0028
     11 C           8.9637   16.9681   -0.0352 C.ar    1  UNL1       -0.0523
     12 C           9.7400   18.1264   -0.0377 C.ar    1  UNL1       -0.0611
     13 C           9.1479   19.3942   -0.0389 C.ar    1  UNL1       -0.0598
     14 C           7.7614   19.5466   -0.0376 C.ar    1  UNL1       -0.0378
     15 C           1.2558   -0.5706   -0.0008 C.ar    1  UNL1       -0.0607
     16 C           0.0882   -1.3222    0.0005 C.ar    1  UNL1       -0.0555
     17 C          -1.1418   -0.6787    0.0076 C.ar    1  UNL1        0.0103
     18 C           1.1896    0.8177    0.0041 C.ar    1  UNL1       -0.0465
     19 C          -0.0408    1.4672    0.0126 C.ar    1  UNL1        0.0674
     20 C          -1.2043    0.7089    0.0149 C.ar    1  UNL1        0.2152
     21 N          -2.3905    1.2936    0.0174 N.ar    1  UNL1       -0.2077
     22 C          -0.1094    2.8595    0.0104 C.ar    1  UNL1        0.0498
     23 C          -1.3926    3.4442    0.0197 C.ar    1  UNL1        0.0408
     24 C          -2.5148    2.6114    0.0220 C.ar    1  UNL1        0.1877
     25 C          -3.9282    3.1594    0.0050 C.3     1  UNL1        0.0328
     26 C          -3.9953    4.6279    0.4033 C.3     1  UNL1       -0.0432
     27 C          -2.9969    5.3665   -0.4456 C.3     1  UNL1       -0.0483
     28 C          -1.6213    4.9566    0.0447 C.3     1  UNL1       -0.0200
     29 N           1.2108    3.6217   -0.0086 N.pl3   1  UNL1       -0.3428
     30 C           1.2920    5.0871   -0.1700 C.3     1  UNL1        0.0091
     31 C           2.6533    5.7125    0.0855 C.3     1  UNL1       -0.0375
     32 C           2.4001    7.2282   -0.0526 C.3     1  UNL1       -0.0516
     33 C           3.6916    8.0293    0.0549 C.3     1  UNL1       -0.0516
     34 C           3.3521    9.5300   -0.0385 C.3     1  UNL1       -0.0374
     35 C           4.6625   10.3161    0.0127 C.3     1  UNL1        0.0116
     36 H           3.5033   12.0795   -0.0405 H       1  UNL1        0.1487
     37 H           4.7858   14.3618   -0.9110 H       1  UNL1        0.0361
     38 H           4.7673   14.3745    0.8278 H       1  UNL1        0.0361
     39 H           7.2545   14.4318   -0.9013 H       1  UNL1        0.0318
     40 H           7.2450   14.4356    0.8490 H       1  UNL1        0.0318
     41 H           5.0374   18.9750   -0.0340 H       1  UNL1        0.1653
     42 H           4.4129   16.5389   -0.0300 H       1  UNL1        0.0810
     43 H           9.3895   16.0281   -0.0343 H       1  UNL1        0.0624
     44 H          10.7690   18.0473   -0.0387 H       1  UNL1        0.0618
     45 H           9.7489   20.2331   -0.0408 H       1  UNL1        0.0618
     46 H           7.3196   20.4792   -0.0385 H       1  UNL1        0.0638
     47 H           2.1733   -1.0431   -0.0054 H       1  UNL1        0.0618
     48 H           0.1346   -2.3531   -0.0038 H       1  UNL1        0.0620
     49 H          -2.0124   -1.2329    0.0075 H       1  UNL1        0.0683
     50 H           2.0604    1.3715    0.0014 H       1  UNL1        0.0626
     51 H          -3.2011    0.7349    0.0158 H       1  UNL1        0.4531
     52 H          -4.5234    2.5918    0.6894 H       1  UNL1        0.0372
     53 H          -4.2930    3.0800   -0.9977 H       1  UNL1        0.0372
     54 H          -3.7487    4.7383    1.4386 H       1  UNL1        0.0270
     55 H          -4.9810    5.0166    0.2544 H       1  UNL1        0.0270
     56 H          -3.1284    6.4226   -0.3350 H       1  UNL1        0.0269
     57 H          -3.1227    5.1304   -1.4816 H       1  UNL1        0.0269
     58 H          -0.8866    5.4210   -0.5794 H       1  UNL1        0.0316
     59 H          -1.5431    5.2709    1.0645 H       1  UNL1        0.0316
     60 H           2.0479    3.1133    0.0914 H       1  UNL1        0.1461
     61 H           0.5955    5.5302    0.5107 H       1  UNL1        0.0461
     62 H           1.0777    5.2754   -1.2013 H       1  UNL1        0.0461
     63 H           3.3670    5.3787   -0.6384 H       1  UNL1        0.0280
     64 H           3.0552    5.4477    1.0412 H       1  UNL1        0.0280
     65 H           1.7333    7.5402    0.7239 H       1  UNL1        0.0266
     66 H           1.9763    7.4081   -1.0185 H       1  UNL1        0.0266
     67 H           4.3504    7.7589   -0.7437 H       1  UNL1        0.0266
     68 H           4.1724    7.8219    0.9880 H       1  UNL1        0.0266
     69 H           2.7271    9.8125    0.7828 H       1  UNL1        0.0280
     70 H           2.8306    9.7366   -0.9497 H       1  UNL1        0.0280
     71 H           5.2654   10.0446   -0.8285 H       1  UNL1        0.0462
     72 H           5.1636   10.0800    0.9282 H       1  UNL1        0.0462
@<TRIPOS>UNITY_ATOM_ATTR
21 1
charge 1
@<TRIPOS>BOND
     1    17    20   ar
     2     8     6   ar
     3    19    18   ar
     4    18    15   ar
     5     4     5    1
     6    19    20   ar
     7     9    10   ar
     8    20    21   ar
     9    21    24   ar
    10     2     3    2
    11    23    22   ar
    12    22    19   ar
    13    23    24   ar
    14    10    11   ar
    15     5     6    1
    16    11    12   ar
    17     6    10   ar
    18    12    13   ar
    19     1     2   am
    20    23    28    1
    21    24    25    1
    22    25    26    1
    23    26    27    1
    24    27    28    1
    25    13    14   ar
    26    22    29    1
    27    14     9   ar
    28    29    30    1
    29     2     4    1
    30    30    31    1
    31     9     7   ar
    32    31    32    1
    33    15    16   ar
    34    32    33    1
    35     7     8   ar
    36    33    34    1
    37    16    17   ar
    38    34    35    1
    39    35     1    1
    40     1    36    1
    41     4    37    1
    42     4    38    1
    43     5    39    1
    44     5    40    1
    45     7    41    1
    46     8    42    1
    47    11    43    1
    48    12    44    1
    49    13    45    1
    50    14    46    1
    51    15    47    1
    52    16    48    1
    53    17    49    1
    54    18    50    1
    55    21    51    1
    56    25    52    1
    57    25    53    1
    58    26    54    1
    59    26    55    1
    60    27    56    1
    61    27    57    1
    62    28    58    1
    63    28    59    1
    64    29    60    1
    65    30    61    1
    66    30    62    1
    67    31    63    1
    68    31    64    1
    69    32    65    1
    70    32    66    1
    71    33    67    1
    72    33    68    1
    73    34    69    1
    74    34    70    1
    75    35    71    1
    76    35    72    1
@<TRIPOS>MOLECULE
BDB8965
 82 87 0 0 0
SMALL
GASTEIGER

@<TRIPOS>ATOM
      1 C           1.4044   -0.7762    0.0097 C.ar    1  UNL1        0.0103
      2 C          -1.0578    0.4309   -0.0089 C.ar    1  UNL1       -0.0465
      3 C          -0.9806   -0.9521   -0.0045 C.ar    1  UNL1       -0.0607
      4 C           0.2611   -1.5653    0.0054 C.ar    1  UNL1       -0.0555
      5 C           0.0782    1.2451   -0.0045 C.ar    1  UNL1        0.0674
      6 C           1.3138    0.6073    0.0051 C.ar    1  UNL1        0.2152
      7 C           0.0237    2.6455   -0.0065 C.ar    1  UNL1        0.0498
      8 C           1.2371    3.3417   -0.0031 C.ar    1  UNL1        0.0408
      9 C           2.4369    2.6306    0.0043 C.ar    1  UNL1        0.1877
     10 C           3.7765    3.3278   -0.0043 C.3     1  UNL1        0.0328
     11 C           3.6603    4.7857    0.4303 C.3     1  UNL1       -0.0432
     12 C           2.5894    5.4332   -0.4250 C.3     1  UNL1       -0.0483
     13 C           1.2384    4.8593    0.0061 C.3     1  UNL1       -0.0200
     14 N           2.4403    1.3106    0.0073 N.ar    1  UNL1       -0.2077
     15 N          -1.2575    3.4430   -0.0099 N.pl3   1  UNL1       -0.3426
     16 C          -2.5683    2.8058   -0.0182 C.3     1  UNL1        0.0140
     17 C          -3.7157    3.7651   -0.0112 C.3     1  UNL1        0.0030
     18 C          -4.9444    2.8669   -0.0189 C.3     1  UNL1       -0.0307
     19 N          -6.1295    3.6733    0.0002 N.4     1  UNL1        0.2331
     20 C          -6.1560    4.4817    1.2260 C.3     1  UNL1       -0.0431
     21 C          -7.2657    2.7991   -0.0237 C.3     1  UNL1       -0.0307
     22 C          -8.5433    3.6257   -0.0354 C.3     1  UNL1        0.0030
     23 C          -9.6363    2.6046   -0.0118 C.3     1  UNL1        0.0140
     24 N         -10.9790    3.1714   -0.0333 N.pl3   1  UNL1       -0.3426
     25 C         -12.2167    2.3082   -0.0363 C.ar    1  UNL1        0.0498
     26 C         -14.6258    2.1679   -0.0451 C.ar    1  UNL1        0.1877
     27 C         -13.4646    2.9404   -0.0416 C.ar    1  UNL1        0.0408
     28 C         -16.0000    2.7946   -0.0451 C.3     1  UNL1        0.0328
     29 C         -13.5449    4.4559   -0.0549 C.3     1  UNL1       -0.0200
     30 C         -14.9247    4.9599    0.3716 C.3     1  UNL1       -0.0483
     31 C         -15.9581    4.2551   -0.4843 C.3     1  UNL1       -0.0432
     32 C         -12.1982    0.9070   -0.0328 C.ar    1  UNL1        0.0674
     33 C         -13.3989    0.2058   -0.0334 C.ar    1  UNL1        0.2152
     34 C         -13.4175   -1.1805   -0.0272 C.ar    1  UNL1        0.0103
     35 C         -12.2346   -1.9089   -0.0216 C.ar    1  UNL1       -0.0555
     36 C         -11.0265   -1.2318   -0.0225 C.ar    1  UNL1       -0.0607
     37 C         -11.0213    0.1533   -0.0281 C.ar    1  UNL1       -0.0465
     38 N         -14.5606    0.8495   -0.0390 N.ar    1  UNL1       -0.2077
     39 H           2.3334   -1.2257    0.0164 H       1  UNL1        0.0683
     40 H          -1.9886    0.8766   -0.0157 H       1  UNL1        0.0626
     41 H          -1.8416   -1.5211   -0.0086 H       1  UNL1        0.0618
     42 H           0.3360   -2.5946    0.0095 H       1  UNL1        0.0620
     43 H           4.1785    3.2930   -0.9953 H       1  UNL1        0.0372
     44 H           4.4174    2.8245    0.6891 H       1  UNL1        0.0372
     45 H           4.5952    5.2856    0.2853 H       1  UNL1        0.0270
     46 H           3.4040    4.8502    1.4671 H       1  UNL1        0.0270
     47 H           2.7657    5.2138   -1.4573 H       1  UNL1        0.0269
     48 H           2.6019    6.4958   -0.2998 H       1  UNL1        0.0269
     49 H           1.0189    5.1991    0.9967 H       1  UNL1        0.0316
     50 H           0.4989    5.1949   -0.6906 H       1  UNL1        0.0316
     51 H           3.3019    0.8342    0.0113 H       1  UNL1        0.4531
     52 H          -1.2062    4.4262   -0.0064 H       1  UNL1        0.1461
     53 H          -2.6450    2.1844    0.8495 H       1  UNL1        0.0463
     54 H          -2.6356    2.2522   -0.9314 H       1  UNL1        0.0463
     55 H          -3.6952    4.3894   -0.8799 H       1  UNL1        0.0332
     56 H          -3.6943    4.4276    0.8287 H       1  UNL1        0.0332
     57 H          -4.9294    2.2354    0.8448 H       1  UNL1        0.0815
     58 H          -4.9387    2.2644   -0.9031 H       1  UNL1        0.0815
     59 H          -6.1457    4.2969   -0.8068 H       1  UNL1        0.2030
     60 H          -6.1392    3.8363    2.0793 H       1  UNL1        0.0777
     61 H          -7.0473    5.0734    1.2438 H       1  UNL1        0.0777
     62 H          -5.3008    5.1243    1.2480 H       1  UNL1        0.0777
     63 H          -7.2532    2.1745    0.8450 H       1  UNL1        0.0815
     64 H          -7.2278    2.1898   -0.9024 H       1  UNL1        0.0815
     65 H          -8.6010    4.2239   -0.9207 H       1  UNL1        0.0332
     66 H          -8.5996    4.3078    0.7871 H       1  UNL1        0.0332
     67 H          -9.5319    2.0208    0.8788 H       1  UNL1        0.0463
     68 H          -9.5330    2.0205   -0.9024 H       1  UNL1        0.0463
     69 H         -11.0819    4.1504   -0.0463 H       1  UNL1        0.1461
     70 H         -16.4043    2.7421    0.9442 H       1  UNL1        0.0372
     71 H         -16.6104    2.2563   -0.7398 H       1  UNL1        0.0372
     72 H         -13.3410    4.8040   -1.0459 H       1  UNL1        0.0316
     73 H         -12.8256    4.8313    0.6426 H       1  UNL1        0.0316
     74 H         -14.9883    6.0176    0.2226 H       1  UNL1        0.0269
     75 H         -15.0943    4.7553    1.4081 H       1  UNL1        0.0269
     76 H         -16.9180    4.7064   -0.3435 H       1  UNL1        0.0270
     77 H         -15.7025    4.3293   -1.5207 H       1  UNL1        0.0270
     78 H         -14.3218   -1.6777   -0.0267 H       1  UNL1        0.0683
     79 H         -12.2558   -2.9407   -0.0168 H       1  UNL1        0.0620
     80 H         -10.1371   -1.7552   -0.0190 H       1  UNL1        0.0618
     81 H         -10.1150    0.6469   -0.0288 H       1  UNL1        0.0626
     82 H         -15.3962    0.3290   -0.0386 H       1  UNL1        0.4531
@<TRIPOS>UNITY_ATOM_ATTR
14 1
charge 1
19 1
charge 1
38 1
charge 1
@<TRIPOS>BOND
     1     1     6   ar
     2     1     4   ar
     3     5     2   ar
     4     2     3   ar
     5     3     4   ar
     6     7     5   ar
     7     5     6   ar
     8    14     6   ar
     9    14     9   ar
    10     8     7   ar
    11    13     8    1
    12     8     9   ar
    13    10     9    1
    14    10    11    1
    15    11    12    1
    16    12    13    1
    17     7    15    1
    18    15    16    1
    19    16    17    1
    20    17    18    1
    21    18    19    1
    22    19    21    1
    23    19    20    1
    24    21    22    1
    25    22    23    1
    26    23    24    1
    27    24    25    1
    28    32    25   ar
    29    25    27   ar
    30    38    33   ar
    31    38    26   ar
    32    28    26    1
    33    26    27   ar
    34    27    29    1
    35    28    31    1
    36    29    30    1
    37    30    31    1
    38    37    32   ar
    39    32    33   ar
    40    34    33   ar
    41    34    35   ar
    42    35    36   ar
    43    36    37   ar
    44     1    39    1
    45     2    40    1
    46     3    41    1
    47     4    42    1
    48    10    43    1
    49    10    44    1
    50    11    45    1
    51    11    46    1
    52    12    47    1
    53    12    48    1
    54    13    49    1
    55    13    50    1
    56    14    51    1
    57    15    52    1
    58    16    53    1
    59    16    54    1
    60    17    55    1
    61    17    56    1
    62    18    57    1
    63    18    58    1
    64    19    59    1
    65    20    60    1
    66    20    61    1
    67    20    62    1
    68    21    63    1
    69    21    64    1
    70    22    65    1
    71    22    66    1
    72    23    67    1
    73    23    68    1
    74    24    69    1
    75    28    70    1
    76    28    71    1
    77    29    72    1
    78    29    73    1
    79    30    74    1
    80    30    75    1
    81    31    76    1
    82    31    77    1
    83    34    78    1
    84    35    79    1
    85    36    80    1
    86    37    81    1
    87    38    82    1
@<TRIPOS>MOLECULE
BDB9054
 79 84 0 0 0
SMALL
GASTEIGER

@<TRIPOS>ATOM
      1 C           1.1067   -0.4856   -0.0002 C.ar    1  UNL1       -0.0451
      2 C           1.0544    0.8991    0.0051 C.ar    1  UNL1       -0.0424
      3 C          -0.1769    1.5314    0.0075 C.ar    1  UNL1        0.0472
      4 C          -1.3362    0.7671    0.0052 C.ar    1  UNL1        0.0286
      5 C          -0.0424   -1.2747   -0.0022 C.ar    1  UNL1        0.0675
      6 C          -1.2706   -0.6217    0.0003 C.ar    1  UNL1        0.2166
      7 C          -0.0089   -2.6783   -0.0119 C.ar    1  UNL1        0.0498
      8 N          -2.4054   -1.3054   -0.0029 N.ar    1  UNL1       -0.2076
      9 N           1.2643   -3.4934   -0.0125 N.pl3   1  UNL1       -0.3428
     10 C           2.5917   -2.8840    0.0228 C.3     1  UNL1        0.0091
     11 C           3.7175   -3.8791   -0.0343 C.3     1  UNL1       -0.0375
     12 C           4.9744   -3.0236   -0.0020 C.3     1  UNL1       -0.0516
     13 C           6.2067   -3.8972   -0.0447 C.3     1  UNL1       -0.0530
     14 C           7.3973   -2.9664   -0.0057 C.3     1  UNL1       -0.0516
     15 C           8.6909   -3.7637   -0.0545 C.3     1  UNL1       -0.0375
     16 C           9.7757   -2.7246    0.0250 C.3     1  UNL1        0.0091
     17 N          11.1241   -3.2845   -0.0332 N.pl3   1  UNL1       -0.3428
     18 C          12.3672   -2.4253   -0.0374 C.ar    1  UNL1        0.0498
     19 C          12.3520   -1.0216   -0.0255 C.ar    1  UNL1        0.0675
     20 C          13.5572   -0.3270   -0.0217 C.ar    1  UNL1        0.2166
     21 C          13.5751    1.0631   -0.0119 C.ar    1  UNL1        0.0286
     22 C          12.3902    1.7870   -0.0054 C.ar    1  UNL1        0.0472
     23 C          11.1812    1.1128   -0.0101 C.ar    1  UNL1       -0.0424
     24 C          11.1762   -0.2730   -0.0204 C.ar    1  UNL1       -0.0451
     25 N          14.7150   -0.9710   -0.0329 N.ar    1  UNL1       -0.2076
     26 C          13.6115   -3.0590   -0.0518 C.ar    1  UNL1        0.0408
     27 C          13.6866   -4.5732   -0.0648 C.3     1  UNL1       -0.0200
     28 C          15.0463   -5.0747    0.4195 C.3     1  UNL1       -0.0483
     29 C          16.1044   -4.4073   -0.4334 C.3     1  UNL1       -0.0432
     30 C          16.1516   -2.9245   -0.0633 C.3     1  UNL1        0.0328
     31 C          14.7770   -2.2932   -0.0528 C.ar    1  UNL1        0.1877
     32 C          -2.4210   -2.6290   -0.0139 C.ar    1  UNL1        0.1877
     33 C          -3.7674   -3.3088   -0.0163 C.3     1  UNL1        0.0328
     34 C          -3.6648   -4.7525    0.4665 C.3     1  UNL1       -0.0432
     35 C          -2.6258   -5.4408   -0.3931 C.3     1  UNL1       -0.0483
     36 C          -1.2496   -4.8756   -0.0310 C.3     1  UNL1       -0.0200
     37 C          -1.2304   -3.3552   -0.0231 C.ar    1  UNL1        0.0408
     38 CL         -0.2601    3.2483    0.0114 Cl      1  UNL1       -0.0833
     39 CL         12.4147    3.5058    0.0049 Cl      1  UNL1       -0.0833
     40 H           2.0288   -0.9490   -0.0028 H       1  UNL1        0.0627
     41 H           1.9249    1.4534    0.0072 H       1  UNL1        0.0632
     42 H          -2.2561    1.2348    0.0071 H       1  UNL1        0.0698
     43 H          -3.2597   -0.8161    0.0031 H       1  UNL1        0.4531
     44 H           1.1962   -4.4752   -0.0377 H       1  UNL1        0.1461
     45 H           2.6819   -2.3241    0.9301 H       1  UNL1        0.0461
     46 H           2.6754   -2.2682   -0.8482 H       1  UNL1        0.0461
     47 H           3.6718   -4.4523   -0.9367 H       1  UNL1        0.0280
     48 H           3.6816   -4.5848    0.7692 H       1  UNL1        0.0280
     49 H           4.9837   -2.4444    0.8976 H       1  UNL1        0.0266
     50 H           4.9769   -2.3776   -0.8550 H       1  UNL1        0.0266
     51 H           6.2189   -4.4747   -0.9454 H       1  UNL1        0.0265
     52 H           6.2240   -4.5807    0.7784 H       1  UNL1        0.0265
     53 H           7.3689   -2.3944    0.8981 H       1  UNL1        0.0266
     54 H           7.3577   -2.3143   -0.8531 H       1  UNL1        0.0266
     55 H           8.7613   -4.3150   -0.9688 H       1  UNL1        0.0280
     56 H           8.7565   -4.4823    0.7356 H       1  UNL1        0.0280
     57 H           9.6690   -2.1934    0.9477 H       1  UNL1        0.0461
     58 H           9.6630   -2.0860   -0.8261 H       1  UNL1        0.0461
     59 H          11.2271   -4.2629   -0.0713 H       1  UNL1        0.1461
     60 H          14.4784    1.5621   -0.0094 H       1  UNL1        0.0698
     61 H          10.2923    1.6370   -0.0060 H       1  UNL1        0.0632
     62 H          10.2706   -0.7679   -0.0244 H       1  UNL1        0.0627
     63 H          15.5517   -0.4523   -0.0262 H       1  UNL1        0.4531
     64 H          13.5247   -4.9200   -1.0640 H       1  UNL1        0.0316
     65 H          12.9360   -4.9505    0.5979 H       1  UNL1        0.0316
     66 H          15.1046   -6.1374    0.3096 H       1  UNL1        0.0269
     67 H          15.1899   -4.8389    1.4533 H       1  UNL1        0.0269
     68 H          15.8558   -4.5144   -1.4686 H       1  UNL1        0.0270
     69 H          17.0579   -4.8615   -0.2617 H       1  UNL1        0.0270
     70 H          16.7612   -2.4106   -0.7769 H       1  UNL1        0.0372
     71 H          16.5565   -2.8455    0.9240 H       1  UNL1        0.0372
     72 H          -4.1587   -3.3020   -1.0122 H       1  UNL1        0.0372
     73 H          -4.4137   -2.7767    0.6501 H       1  UNL1        0.0372
     74 H          -4.6103   -5.2422    0.3610 H       1  UNL1        0.0270
     75 H          -3.3867   -4.7882    1.4991 H       1  UNL1        0.0270
     76 H          -2.8319   -5.2564   -1.4267 H       1  UNL1        0.0269
     77 H          -2.6469   -6.4968   -0.2216 H       1  UNL1        0.0269
     78 H          -0.5356   -5.2244   -0.7476 H       1  UNL1        0.0316
     79 H          -1.0096   -5.2097    0.9568 H       1  UNL1        0.0316
@<TRIPOS>UNITY_ATOM_ATTR
8 1
charge 1
25 1
charge 1
@<TRIPOS>BOND
     1     1     2   ar
     2     1     5   ar
     3     2     3   ar
     4     3     4   ar
     5     4     6   ar
     6     7     5   ar
     7     6     5   ar
     8     6     8   ar
     9     7    37   ar
    10     8    32   ar
    11     7     9    1
    12     9    10    1
    13    10    11    1
    14    11    12    1
    15    12    13    1
    16    13    14    1
    17    14    15    1
    18    15    16    1
    19    16    17    1
    20    17    18    1
    21    19    18   ar
    22    18    26   ar
    23    25    20   ar
    24    25    31   ar
    25    24    19   ar
    26    20    19   ar
    27    21    20   ar
    28    21    22   ar
    29    22    23   ar
    30    23    24   ar
    31    26    27    1
    32    27    28    1
    33    28    29    1
    34    29    30    1
    35    30    31    1
    36    26    31   ar
    37    32    33    1
    38    33    34    1
    39    34    35    1
    40    35    36    1
    41    36    37    1
    42    32    37   ar
    43     3    38    1
    44    22    39    1
    45     1    40    1
    46     2    41    1
    47     4    42    1
    48     8    43    1
    49     9    44    1
    50    10    45    1
    51    10    46    1
    52    11    47    1
    53    11    48    1
    54    12    49    1
    55    12    50    1
    56    13    51    1
    57    13    52    1
    58    14    53    1
    59    14    54    1
    60    15    55    1
    61    15    56    1
    62    16    57    1
    63    16    58    1
    64    17    59    1
    65    21    60    1
    66    23    61    1
    67    24    62    1
    68    25    63    1
    69    27    64    1
    70    27    65    1
    71    28    66    1
    72    28    67    1
    73    29    68    1
    74    29    69    1
    75    30    70    1
    76    30    71    1
    77    33    72    1
    78    33    73    1
    79    34    74    1
    80    34    75    1
    81    35    76    1
    82    35    77    1
    83    36    78    1
    84    36    79    1
@<TRIPOS>MOLECULE
BDB9035
 72 76 0 0 0
SMALL
GASTEIGER

@<TRIPOS>ATOM
      1 C          18.0768   -1.8983   -0.0434 C.ar    1  UNL1       -0.0523
      2 C          19.4566   -2.0971   -0.0465 C.ar    1  UNL1       -0.0611
      3 C          20.3414   -1.0136   -0.0464 C.ar    1  UNL1       -0.0598
      4 C          19.8762    0.3013   -0.0432 C.ar    1  UNL1       -0.0378
      5 C          17.6435   -0.5837   -0.0403 C.ar    1  UNL1        0.0033
      6 C          18.5031    0.4831   -0.0401 C.ar    1  UNL1        0.0467
      7 C          16.5052    1.3285   -0.0347 C.ar    1  UNL1        0.0064
      8 N          17.8136    1.6222   -0.0368 N.ar    1  UNL1       -0.3604
      9 C          16.3862   -0.0473   -0.0369 C.ar    1  UNL1       -0.0136
     10 C          15.0941   -0.8868   -0.0360 C.3     1  UNL1        0.0511
     11 C          10.0715   -1.0760   -0.0252 C.3     1  UNL1       -0.0374
     12 C           8.7365   -0.2664   -0.0206 C.3     1  UNL1       -0.0516
     13 C           7.5005   -1.2178   -0.0200 C.3     1  UNL1       -0.0530
     14 C          11.2846   -0.0958   -0.0257 C.3     1  UNL1        0.0116
     15 C           6.1791   -0.3861   -0.0154 C.3     1  UNL1       -0.0516
     16 C           4.9405   -1.3295   -0.0147 C.3     1  UNL1       -0.0375
     17 C           3.6195   -0.5049   -0.0101 C.3     1  UNL1        0.0091
     18 N           2.4553   -1.4261   -0.0094 N.pl3   1  UNL1       -0.3428
     19 C           1.2050   -0.7053   -0.0052 C.ar    1  UNL1        0.0498
     20 C          -0.0255    1.3469    0.0038 C.ar    1  UNL1        0.2166
     21 C           1.1921    0.6804   -0.0016 C.ar    1  UNL1        0.0675
     22 C           2.3546    2.7846   -0.0020 C.ar    1  UNL1       -0.0424
     23 C           2.3832    1.3953   -0.0037 C.ar    1  UNL1       -0.0451
     24 C          -0.0529    2.7358    0.0048 C.ar    1  UNL1        0.0286
     25 C           1.1366    3.4542    0.0015 C.ar    1  UNL1        0.0472
     26 C          -1.1923   -0.6627    0.0063 C.ar    1  UNL1        0.1877
     27 C          -0.0019   -1.3891   -0.0031 C.ar    1  UNL1        0.0408
     28 C           0.0145   -2.8972    0.0010 C.3     1  UNL1       -0.0200
     29 C          -1.3408   -3.4676   -0.4269 C.3     1  UNL1       -0.0483
     30 C          -2.4153   -2.8141    0.4287 C.3     1  UNL1       -0.0432
     31 C          -2.5353   -1.3496   -0.0020 C.3     1  UNL1        0.0328
     32 N          -1.1655    0.6662    0.0068 N.ar    1  UNL1       -0.2076
     33 CL          1.0999    5.1708    0.0016 Cl      1  UNL1       -0.0833
     34 C          13.7679   -0.1081   -0.0312 C.2     1  UNL1        0.2174
     35 O          13.7373    1.1268   -0.0283 O.2     1  UNL1       -0.2755
     36 N          12.5448   -0.8181   -0.0301 N.am    1  UNL1       -0.3150
     37 H          17.4137   -2.6891   -0.0434 H       1  UNL1        0.0624
     38 H          19.8312   -3.0587   -0.0489 H       1  UNL1        0.0618
     39 H          21.3581   -1.1906   -0.0487 H       1  UNL1        0.0618
     40 H          20.5261    1.1030   -0.0431 H       1  UNL1        0.0638
     41 H          15.7281    2.0075   -0.0319 H       1  UNL1        0.0810
     42 H          18.1996    2.5279   -0.0360 H       1  UNL1        0.1653
     43 H          15.1100   -1.5065    0.8362 H       1  UNL1        0.0408
     44 H          15.1042   -1.4217   -0.9626 H       1  UNL1        0.0408
     45 H          10.1111   -1.6905   -0.9003 H       1  UNL1        0.0280
     46 H          10.1146   -1.6906    0.8496 H       1  UNL1        0.0280
     47 H           8.7004    0.3523   -0.8928 H       1  UNL1        0.0266
     48 H           8.7052    0.3307    0.8667 H       1  UNL1        0.0266
     49 H           7.5315   -1.8367    0.8523 H       1  UNL1        0.0265
     50 H           7.5274   -1.8252   -0.9005 H       1  UNL1        0.0265
     51 H          11.2336    0.5220   -0.8979 H       1  UNL1        0.0462
     52 H          11.2389    0.4996    0.8622 H       1  UNL1        0.0462
     53 H           6.1497    0.2329   -0.8877 H       1  UNL1        0.0266
     54 H           6.1540    0.2184    0.8671 H       1  UNL1        0.0266
     55 H           4.9711   -1.9484    0.8576 H       1  UNL1        0.0280
     56 H           4.9667   -1.9317   -0.8988 H       1  UNL1        0.0280
     57 H           3.5832    0.1137   -0.8824 H       1  UNL1        0.0461
     58 H           3.5872    0.1081    0.8663 H       1  UNL1        0.0461
     59 H           2.5273   -2.4080   -0.0115 H       1  UNL1        0.1461
     60 H           3.2374    3.3190   -0.0033 H       1  UNL1        0.0632
     61 H           3.2865    0.8962   -0.0065 H       1  UNL1        0.0627
     62 H          -0.9566    3.2341    0.0080 H       1  UNL1        0.0698
     63 H           0.2416   -3.2410    0.9885 H       1  UNL1        0.0316
     64 H           0.7565   -3.2296   -0.6946 H       1  UNL1        0.0316
     65 H          -1.3524   -4.5272   -0.2782 H       1  UNL1        0.0269
     66 H          -1.5180   -3.2688   -1.4632 H       1  UNL1        0.0269
     67 H          -2.1401   -2.8678    1.4613 H       1  UNL1        0.0270
     68 H          -3.3506   -3.3177    0.3006 H       1  UNL1        0.0270
     69 H          -2.9409   -1.3096   -0.9913 H       1  UNL1        0.0372
     70 H          -3.1760   -0.8457    0.6911 H       1  UNL1        0.0372
     71 H          -2.0167    1.1608    0.0095 H       1  UNL1        0.4531
     72 H          12.5475   -1.8026   -0.0323 H       1  UNL1        0.1487
@<TRIPOS>UNITY_ATOM_ATTR
32 1
charge 1
@<TRIPOS>BOND
     1     5     1   ar
     2     1     2   ar
     3     2     3   ar
     4     3     4   ar
     5     4     6   ar
     6     5     9   ar
     7     5     6   ar
     8     6     8   ar
     9     7     9   ar
    10     8     7   ar
    11     9    10    1
    12    10    34    1
    13    34    36   am
    14    11    12    1
    15    12    13    1
    16    13    15    1
    17    36    14    1
    18    14    11    1
    19    15    16    1
    20    16    17    1
    21    17    18    1
    22    18    19    1
    23    21    19   ar
    24    19    27   ar
    25    26    32   ar
    26    32    20   ar
    27    20    24   ar
    28    21    20   ar
    29    23    21   ar
    30    22    23   ar
    31    22    25   ar
    32    24    25   ar
    33    31    26    1
    34    27    26   ar
    35    27    28    1
    36    28    29    1
    37    29    30    1
    38    30    31    1
    39    25    33    1
    40    34    35    2
    41     1    37    1
    42     2    38    1
    43     3    39    1
    44     4    40    1
    45     7    41    1
    46     8    42    1
    47    10    43    1
    48    10    44    1
    49    11    45    1
    50    11    46    1
    51    12    47    1
    52    12    48    1
    53    13    49    1
    54    13    50    1
    55    14    51    1
    56    14    52    1
    57    15    53    1
    58    15    54    1
    59    16    55    1
    60    16    56    1
    61    17    57    1
    62    17    58    1
    63    18    59    1
    64    22    60    1
    65    23    61    1
    66    24    62    1
    67    28    63    1
    68    28    64    1
    69    29    65    1
    70    29    66    1
    71    30    67    1
    72    30    68    1
    73    31    69    1
    74    31    70    1
    75    32    71    1
    76    36    72    1
@<TRIPOS>MOLECULE
BDB50271325
 86 91 0 0 0
SMALL
GASTEIGER

@<TRIPOS>ATOM
      1 C           5.9870   -0.5968   -0.0963 C.ar    1  UNL1       -0.0607
      2 C           5.9698    0.7833    0.0561 C.ar    1  UNL1       -0.0555
      3 C           4.7546    1.4508    0.1299 C.ar    1  UNL1        0.0103
      4 C           4.7923   -1.3028   -0.1660 C.ar    1  UNL1       -0.0465
      5 C           3.5719   -0.6384   -0.0935 C.ar    1  UNL1        0.0674
      6 C           3.5624    0.7423    0.0524 C.ar    1  UNL1        0.2152
      7 N           2.4195    1.4043    0.1262 N.ar    1  UNL1       -0.2077
      8 C           2.3743   -1.3492   -0.1366 C.ar    1  UNL1        0.0498
      9 C           1.1780   -0.6078   -0.0604 C.ar    1  UNL1        0.0408
     10 C           1.2522    0.7822    0.0689 C.ar    1  UNL1        0.1877
     11 C           0.0150    1.6505    0.1800 C.3     1  UNL1        0.0328
     12 C          -1.2434    0.9402   -0.3007 C.3     1  UNL1       -0.0432
     13 C          -1.3133   -0.3800    0.4206 C.3     1  UNL1       -0.0483
     14 C          -0.2060   -1.2537   -0.1432 C.3     1  UNL1       -0.0200
     15 N           2.4729   -2.8648   -0.2498 N.pl3   1  UNL1       -0.3428
     16 C           1.3203   -3.7657   -0.0432 C.3     1  UNL1        0.0092
     17 C           1.2715   -4.9873   -0.9573 C.3     1  UNL1       -0.0361
     18 C          -0.0925   -5.6313   -0.6466 C.3     1  UNL1       -0.0357
     19 C          -0.3951   -6.8468   -1.5332 C.3     1  UNL1        0.0147
     20 N          -1.7408   -7.2857   -1.2466 N.am    1  UNL1       -0.3017
     21 C          -1.9611   -8.6064   -0.7879 C.3     1  UNL1        0.0161
     22 C          -2.5429   -9.4934   -1.9062 C.3     1  UNL1       -0.0216
     23 C          -2.9561  -10.7472   -1.1842 C.3     1  UNL1        0.0106
     24 N          -3.5912  -11.7707   -2.0158 N.pl3   1  UNL1       -0.3428
     25 C          -6.1763  -14.4103   -3.9707 C.ar    1  UNL1       -0.0607
     26 C          -6.2413  -15.7568   -3.6378 C.ar    1  UNL1       -0.0555
     27 C          -5.4078  -16.2610   -2.6483 C.ar    1  UNL1        0.0103
     28 C          -5.2850  -13.5746   -3.3093 C.ar    1  UNL1       -0.0465
     29 C          -4.4469  -14.0759   -2.3180 C.ar    1  UNL1        0.0674
     30 C          -4.5133  -15.4238   -1.9942 C.ar    1  UNL1        0.2152
     31 N          -3.7320  -15.9301   -1.0540 N.ar    1  UNL1       -0.2077
     32 C          -3.5702  -13.2346   -1.6372 C.ar    1  UNL1        0.0498
     33 C          -2.7484  -13.8122   -0.6476 C.ar    1  UNL1        0.0408
     34 C          -2.8666  -15.1798   -0.3900 C.ar    1  UNL1        0.1877
     35 C          -2.0408  -15.8733    0.6749 C.3     1  UNL1        0.0328
     36 C          -0.8183  -15.0644    1.0924 C.3     1  UNL1       -0.0432
     37 C          -1.2961  -13.6824    1.4447 C.3     1  UNL1       -0.0483
     38 C          -1.7030  -13.0181    0.1450 C.3     1  UNL1       -0.0200
     39 C          -2.8344   -6.3872   -1.3431 C.2     1  UNL1        0.2125
     40 O          -2.6752   -5.2634   -1.8303 O.2     1  UNL1       -0.2759
     41 C          -4.2078   -6.7872   -0.8540 C.3     1  UNL1        0.0124
     42 H           6.8870   -1.0980   -0.1578 H       1  UNL1        0.0618
     43 H           6.8554    1.3099    0.1142 H       1  UNL1        0.0620
     44 H           4.7371    2.4765    0.2427 H       1  UNL1        0.0683
     45 H           4.8103   -2.3291   -0.2725 H       1  UNL1        0.0626
     46 H           2.4374    2.3835    0.2262 H       1  UNL1        0.4531
     47 H           0.1593    2.5302   -0.4118 H       1  UNL1        0.0372
     48 H          -0.1221    1.8889    1.2141 H       1  UNL1        0.0372
     49 H          -1.1920    0.7784   -1.3571 H       1  UNL1        0.0270
     50 H          -2.1130    1.5299   -0.0983 H       1  UNL1        0.0270
     51 H          -2.2650   -0.8398    0.2539 H       1  UNL1        0.0269
     52 H          -1.1937   -0.2455    1.4754 H       1  UNL1        0.0269
     53 H          -0.1854   -2.1718    0.4059 H       1  UNL1        0.0316
     54 H          -0.4216   -1.4077   -1.1799 H       1  UNL1        0.0316
     55 H           3.3457   -3.2629   -0.4710 H       1  UNL1        0.1461
     56 H           0.4263   -3.1994   -0.2011 H       1  UNL1        0.0461
     57 H           1.4184   -4.1462    0.9521 H       1  UNL1        0.0461
     58 H           2.0707   -5.6624   -0.7328 H       1  UNL1        0.0281
     59 H           1.3807   -4.7327   -1.9908 H       1  UNL1        0.0281
     60 H          -0.8581   -4.8993   -0.7980 H       1  UNL1        0.0281
     61 H          -0.0628   -5.9728    0.3670 H       1  UNL1        0.0281
     62 H          -0.3146   -6.5729   -2.5644 H       1  UNL1        0.0464
     63 H           0.3022   -7.6338   -1.3349 H       1  UNL1        0.0464
     64 H          -2.6488   -8.5814    0.0315 H       1  UNL1        0.0465
     65 H          -1.0234   -9.0197   -0.4800 H       1  UNL1        0.0465
     66 H          -1.8027   -9.7065   -2.6489 H       1  UNL1        0.0295
     67 H          -3.3530   -9.0275   -2.4274 H       1  UNL1        0.0295
     68 H          -3.6465  -10.4724   -0.4143 H       1  UNL1        0.0462
     69 H          -2.0527  -11.1861   -0.8154 H       1  UNL1        0.0462
     70 H          -4.0452  -11.4981   -2.8457 H       1  UNL1        0.1461
     71 H          -6.7896  -14.0306   -4.7088 H       1  UNL1        0.0618
     72 H          -6.9057  -16.3796   -4.1233 H       1  UNL1        0.0620
     73 H          -5.4531  -17.2612   -2.3981 H       1  UNL1        0.0683
     74 H          -5.2441  -12.5732   -3.5554 H       1  UNL1        0.0626
     75 H          -3.7959  -16.8895   -0.8427 H       1  UNL1        0.4531
     76 H          -1.7122  -16.8170    0.2924 H       1  UNL1        0.0372
     77 H          -2.6609  -15.9901    1.5390 H       1  UNL1        0.0372
     78 H          -0.1184  -15.0151    0.2846 H       1  UNL1        0.0270
     79 H          -0.3290  -15.5206    1.9275 H       1  UNL1        0.0270
     80 H          -0.5091  -13.1280    1.9117 H       1  UNL1        0.0269
     81 H          -2.1167  -13.7219    2.1302 H       1  UNL1        0.0269
     82 H          -2.1093  -12.0542    0.3702 H       1  UNL1        0.0316
     83 H          -0.8259  -12.9568   -0.4648 H       1  UNL1        0.0316
     84 H          -4.1717   -7.7832   -0.4647 H       1  UNL1        0.0323
     85 H          -4.9018   -6.7472   -1.6675 H       1  UNL1        0.0323
     86 H          -4.5220   -6.1143   -0.0837 H       1  UNL1        0.0323
@<TRIPOS>UNITY_ATOM_ATTR
7 1
charge 1
31 1
charge 1
@<TRIPOS>BOND
     1     9    10   ar
     2    19    20    1
     3     5     4   ar
     4    20    21    1
     5     4     1   ar
     6    21    22    1
     7    22    23    1
     8     2     3   ar
     9    23    24    1
    10     5     6   ar
    11     3     6   ar
    12    25    26   ar
    13     9    14    1
    14    26    27   ar
    15    27    30   ar
    16    10    11    1
    17    29    28   ar
    18    28    25   ar
    19    11    12    1
    20    12    13    1
    21    29    30   ar
    22    13    14    1
    23    30    31   ar
    24    31    34   ar
    25     6     7   ar
    26    33    32   ar
    27    32    29   ar
    28    33    34   ar
    29     8    15    1
    30     7    10   ar
    31    15    16    1
    32     1     2   ar
    33    16    17    1
    34     9     8   ar
    35    33    38    1
    36    34    35    1
    37    35    36    1
    38    36    37    1
    39    37    38    1
    40    32    24    1
    41    17    18    1
    42    20    39   am
    43     8     5   ar
    44    39    40    2
    45    18    19    1
    46    39    41    1
    47     1    42    1
    48     2    43    1
    49     3    44    1
    50     4    45    1
    51     7    46    1
    52    11    47    1
    53    11    48    1
    54    12    49    1
    55    12    50    1
    56    13    51    1
    57    13    52    1
    58    14    53    1
    59    14    54    1
    60    15    55    1
    61    16    56    1
    62    16    57    1
    63    17    58    1
    64    17    59    1
    65    18    60    1
    66    18    61    1
    67    19    62    1
    68    19    63    1
    69    21    64    1
    70    21    65    1
    71    22    66    1
    72    22    67    1
    73    23    68    1
    74    23    69    1
    75    24    70    1
    76    25    71    1
    77    26    72    1
    78    27    73    1
    79    28    74    1
    80    31    75    1
    81    35    76    1
    82    35    77    1
    83    36    78    1
    84    36    79    1
    85    37    80    1
    86    37    81    1
    87    38    82    1
    88    38    83    1
    89    41    84    1
    90    41    85    1
    91    41    86    1
@<TRIPOS>MOLECULE
BDB50154767
 54 58 0 0 0
SMALL
GASTEIGER

@<TRIPOS>ATOM
      1 C           1.1417   -0.6785   -0.0002 C.ar    1  UNL1        0.0447
      2 N           3.1600    0.1204   -0.0001 N.ar    1  UNL1       -0.0821
      3 N          -2.4759    1.1806    0.0000 N.am    1  UNL1       -0.2849
      4 C           1.1519    0.6900   -0.0001 C.ar    1  UNL1        0.1693
      5 C          -1.1909    0.6841   -0.0001 C.ar    1  UNL1        0.0406
      6 O           2.3840    1.0976    0.0000 O.2     1  UNL1       -0.3543
      7 C          -3.3389    0.0692   -0.0001 C.2     1  UNL1        0.2216
      8 C          -1.1930   -0.7048   -0.0002 C.ar    1  UNL1       -0.0166
      9 C          -0.0152   -1.4465   -0.0003 C.ar    1  UNL1       -0.0438
     10 C           2.4709   -1.0231   -0.0002 C.ar    1  UNL1        0.0913
     11 C          -0.0182    1.4354    0.0000 C.ar    1  UNL1        0.0054
     12 N           4.7882   -6.6428    0.0011 N.4     1  UNL1        0.2385
     13 C          -2.5917   -1.2661   -0.0002 C.3     1  UNL1        0.0512
     14 O          -4.5705    0.1601    0.0002 O.2     1  UNL1       -0.2751
     15 C           3.0409   -2.4049   -0.0002 C.3     1  UNL1       -0.0063
     16 C           5.3314   -8.0440    0.0014 C.3     1  UNL1       -0.0059
     17 C           5.2598   -5.9429    1.2130 C.3     1  UNL1       -0.0313
     18 C           5.2584   -5.9439   -1.2120 C.3     1  UNL1       -0.0313
     19 C           4.5796   -2.3322   -0.0002 C.3     1  UNL1       -0.0443
     20 C           6.8673   -8.2307    0.0005 C.ar    1  UNL1       -0.0029
     21 C           5.1631   -3.7591   -0.0001 C.3     1  UNL1       -0.0311
     22 C           4.6870   -4.5142    1.2471 C.3     1  UNL1       -0.0095
     23 C           4.6871   -4.5144   -1.2472 C.3     1  UNL1       -0.0095
     24 C           7.7567   -7.1624   -0.0002 C.ar    1  UNL1       -0.0535
     25 C           7.3521   -9.5357    0.0004 C.ar    1  UNL1       -0.0535
     26 C           9.1274   -7.3964   -0.0010 C.ar    1  UNL1       -0.0613
     27 C           8.7216   -9.7695   -0.0003 C.ar    1  UNL1       -0.0613
     28 C           9.6093   -8.6994   -0.0010 C.ar    1  UNL1       -0.0617
     29 H          -2.7394    2.1292    0.0001 H       1  UNL1        0.1548
     30 H          -0.0028   -2.4784   -0.0004 H       1  UNL1        0.0629
     31 H          -0.0195    2.4674    0.0001 H       1  UNL1        0.0674
     32 H           3.7683   -6.6579    0.0017 H       1  UNL1        0.2037
     33 H          -2.7974   -1.8485   -0.8739 H       1  UNL1        0.0408
     34 H          -2.8315   -1.9452    0.7911 H       1  UNL1        0.0408
     35 H           2.7095   -2.9263   -0.8739 H       1  UNL1        0.0330
     36 H           2.7108   -2.9242    0.8752 H       1  UNL1        0.0330
     37 H           4.9516   -8.5321   -0.8718 H       1  UNL1        0.0867
     38 H           5.0145   -8.4519    0.9384 H       1  UNL1        0.0867
     39 H           4.9339   -6.4770    2.0810 H       1  UNL1        0.0814
     40 H           6.3286   -5.8945    1.1993 H       1  UNL1        0.0814
     41 H           4.9307   -6.4785   -2.0790 H       1  UNL1        0.0814
     42 H           6.3273   -5.8961   -1.1994 H       1  UNL1        0.0814
     43 H           4.9118   -1.8113    0.8734 H       1  UNL1        0.0272
     44 H           4.9114   -1.8120   -0.8744 H       1  UNL1        0.0272
     45 H           6.2312   -3.6958   -0.0001 H       1  UNL1        0.0304
     46 H           5.0313   -4.0099    2.1257 H       1  UNL1        0.0319
     47 H           3.6178   -4.5522    1.2622 H       1  UNL1        0.0319
     48 H           3.6179   -4.5549   -1.2565 H       1  UNL1        0.0319
     49 H           5.0256   -4.0100   -2.1281 H       1  UNL1        0.0319
     50 H           7.3992   -6.1943   -0.0001 H       1  UNL1        0.0622
     51 H           6.6935  -10.3302    0.0008 H       1  UNL1        0.0622
     52 H           9.7865   -6.6023   -0.0016 H       1  UNL1        0.0618
     53 H           9.0799  -10.7373   -0.0003 H       1  UNL1        0.0618
     54 H          10.6266   -8.8731   -0.0015 H       1  UNL1        0.0618
@<TRIPOS>UNITY_ATOM_ATTR
12 1
charge 1
@<TRIPOS>BOND
     1     2    10   ar
     2     3     5    1
     3     4     1   ar
     4     5     8   ar
     5     6     4   ar
     6     7    13    1
     7     8     9   ar
     8     9     1   ar
     9    10     1   ar
    10    11     4   ar
    11    12    18    1
    12    13     8    1
    13    14     7    2
    14    15    10    1
    15    16    12    1
    16    17    22    1
    17    18    23    1
    18    19    15    1
    19    20    16    1
    20    21    19    1
    21    22    21    1
    22    23    21    1
    23    24    20   ar
    24    25    20   ar
    25    26    24   ar
    26    27    25   ar
    27    28    27   ar
    28    11     5   ar
    29     6     2   ar
    30     3     7   am
    31    17    12    1
    32    26    28   ar
    33     3    29    1
    34     9    30    1
    35    11    31    1
    36    12    32    1
    37    13    33    1
    38    13    34    1
    39    15    35    1
    40    15    36    1
    41    16    37    1
    42    16    38    1
    43    17    39    1
    44    17    40    1
    45    18    41    1
    46    18    42    1
    47    19    43    1
    48    19    44    1
    49    21    45    1
    50    22    46    1
    51    22    47    1
    52    23    48    1
    53    23    49    1
    54    24    50    1
    55    25    51    1
    56    26    52    1
    57    27    53    1
    58    28    54    1
@<TRIPOS>MOLECULE
BDB50032161
 57 61 0 0 0
SMALL
GASTEIGER

@<TRIPOS>ATOM
      1 N           2.4706   -1.1581   -0.0002 N.am    1  UNL1       -0.2738
      2 C           1.1900   -0.6919   -0.0002 C.ar    1  UNL1        0.0432
      3 C           3.3502   -0.0781    0.0000 C.2     1  UNL1        0.2239
      4 C           1.1956    0.6973    0.0000 C.ar    1  UNL1       -0.0164
      5 C          -1.1351    0.6684   -0.0001 C.ar    1  UNL1        0.0447
      6 N          -3.1547   -0.1266   -0.0002 N.ar    1  UNL1       -0.0821
      7 C          -1.1482   -0.7009   -0.0002 C.ar    1  UNL1        0.1693
      8 C           0.0216   -1.4481   -0.0003 C.ar    1  UNL1        0.0056
      9 O          -2.3804   -1.1058   -0.0003 O.2     1  UNL1       -0.3543
     10 C           0.0186    1.4386    0.0000 C.ar    1  UNL1       -0.0438
     11 C          -2.4637    1.0151    0.0000 C.ar    1  UNL1        0.0913
     12 C           2.6062    1.2607    0.0001 C.3     1  UNL1        0.0514
     13 N          -4.7520    6.6466    0.0022 N.4     1  UNL1        0.2385
     14 O           4.5804   -0.1842    0.0002 O.2     1  UNL1       -0.2749
     15 C          -3.0265    2.3998    0.0001 C.3     1  UNL1       -0.0063
     16 C          -5.2880    8.0506    0.0028 C.3     1  UNL1       -0.0059
     17 C          -5.2259    5.9503   -1.2109 C.3     1  UNL1       -0.0313
     18 C          -5.2270    5.9490    1.2141 C.3     1  UNL1       -0.0313
     19 C           2.8528   -2.5357   -0.0002 C.3     1  UNL1        0.0083
     20 C          -4.5656    2.3350    0.0003 C.3     1  UNL1       -0.0443
     21 C          -6.8229    8.2453    0.0020 C.ar    1  UNL1       -0.0029
     22 C          -5.1418    3.7649    0.0007 C.3     1  UNL1       -0.0311
     23 C          -4.6617    4.5173    1.2479 C.3     1  UNL1       -0.0095
     24 C          -4.6620    4.5179   -1.2464 C.3     1  UNL1       -0.0095
     25 C          -7.7178    7.1816    0.0013 C.ar    1  UNL1       -0.0535
     26 C          -7.3009    9.5527    0.0022 C.ar    1  UNL1       -0.0535
     27 C          -8.6691    9.7935    0.0016 C.ar    1  UNL1       -0.0613
     28 C          -9.0873    7.4226    0.0007 C.ar    1  UNL1       -0.0613
     29 C          -9.5624    8.7281    0.0009 C.ar    1  UNL1       -0.0617
     30 H           0.0247   -2.4801   -0.0004 H       1  UNL1        0.0674
     31 H           0.0049    2.4705    0.0001 H       1  UNL1        0.0629
     32 H           2.8133    1.8428   -0.8735 H       1  UNL1        0.0408
     33 H           2.8477    1.9397    0.7910 H       1  UNL1        0.0408
     34 H          -3.7320    6.6564    0.0026 H       1  UNL1        0.2037
     35 H          -2.6926    2.9195   -0.8736 H       1  UNL1        0.0330
     36 H          -2.6936    2.9174    0.8754 H       1  UNL1        0.0330
     37 H          -4.9057    8.5369   -0.8703 H       1  UNL1        0.0867
     38 H          -4.9689    8.4566    0.9399 H       1  UNL1        0.0867
     39 H          -4.8956    6.4833   -2.0779 H       1  UNL1        0.0814
     40 H          -6.2950    5.9080   -1.1981 H       1  UNL1        0.0814
     41 H          -4.8981    6.4812    2.0821 H       1  UNL1        0.0814
     42 H          -6.2961    5.9062    1.2006 H       1  UNL1        0.0814
     43 H           1.9761   -3.1491   -0.0004 H       1  UNL1        0.0433
     44 H           3.4340   -2.7446    0.8735 H       1  UNL1        0.0433
     45 H           3.4343   -2.7445   -0.8738 H       1  UNL1        0.0433
     46 H          -4.9003    1.8157    0.8739 H       1  UNL1        0.0272
     47 H          -4.9002    1.8166   -0.8739 H       1  UNL1        0.0272
     48 H          -6.2102    3.7072    0.0008 H       1  UNL1        0.0304
     49 H          -5.0086    4.0147    2.1265 H       1  UNL1        0.0319
     50 H          -3.5923    4.5497    1.2629 H       1  UNL1        0.0319
     51 H          -3.5926    4.5529   -1.2558 H       1  UNL1        0.0319
     52 H          -5.0031    4.0154   -2.1273 H       1  UNL1        0.0319
     53 H          -7.3653    6.2117    0.0012 H       1  UNL1        0.0622
     54 H          -6.6382   10.3438    0.0028 H       1  UNL1        0.0622
     55 H          -9.0224   10.7631    0.0017 H       1  UNL1        0.0618
     56 H          -9.7505    6.6319    0.0001 H       1  UNL1        0.0618
     57 H         -10.5788    8.9071    0.0005 H       1  UNL1        0.0618
@<TRIPOS>UNITY_ATOM_ATTR
13 1
charge 1
@<TRIPOS>BOND
     1     2     1    1
     2     3     1   am
     3     4     2   ar
     4     5     7   ar
     5     6     9   ar
     6     7     8   ar
     7     8     2   ar
     8     9     7   ar
     9    10     4   ar
    10    11     5   ar
    11    12     3    1
    12    13    17    1
    13    14     3    2
    14    15    11    1
    15    16    13    1
    16    17    24    1
    17    18    23    1
    18    19     1    1
    19    20    15    1
    20    21    16    1
    21    22    20    1
    22    23    22    1
    23    24    22    1
    24    25    21   ar
    25    26    21   ar
    26    27    26   ar
    27    28    25   ar
    28    29    27   ar
    29    12     4    1
    30    10     5   ar
    31    11     6   ar
    32    18    13    1
    33    28    29   ar
    34     8    30    1
    35    10    31    1
    36    12    32    1
    37    12    33    1
    38    13    34    1
    39    15    35    1
    40    15    36    1
    41    16    37    1
    42    16    38    1
    43    17    39    1
    44    17    40    1
    45    18    41    1
    46    18    42    1
    47    19    43    1
    48    19    44    1
    49    19    45    1
    50    20    46    1
    51    20    47    1
    52    22    48    1
    53    23    49    1
    54    23    50    1
    55    24    51    1
    56    24    52    1
    57    25    53    1
    58    26    54    1
    59    27    55    1
    60    28    56    1
    61    29    57    1
@<TRIPOS>MOLECULE
BDB50322767
 79 83 0 0 0
SMALL
GASTEIGER

@<TRIPOS>ATOM
      1 N           8.4489  -19.2501    1.9371 N.ar    1  UNL1       -0.2482
      2 C           8.3338  -20.5718    2.0121 C.ar    1  UNL1        0.0391
      3 C           7.0855  -21.1793    1.9443 C.ar    1  UNL1       -0.0401
      4 C           5.9533  -20.3915    1.7970 C.ar    1  UNL1       -0.0508
      5 C           6.1105  -19.0155    1.7221 C.ar    1  UNL1        0.0040
      6 C           5.0014  -18.1920    1.5745 C.ar    1  UNL1       -0.0519
      7 C           5.1670  -16.8146    1.5003 C.ar    1  UNL1       -0.0493
      8 C           6.4406  -16.2638    1.5738 C.ar    1  UNL1        0.0404
      9 C           7.5488  -17.0894    1.7215 C.ar    1  UNL1        0.1509
     10 C           7.3850  -18.4671    1.7959 C.ar    1  UNL1        0.1130
     11 O           8.8207  -16.5372    1.7948 O.3     1  UNL1       -0.5042
     12 C           6.6246  -14.7686    1.4935 C.3     1  UNL1       -0.0041
     13 N           5.3193  -14.0923    1.3383 N.4     1  UNL1        0.2304
     14 C           5.5305  -12.6285    1.2624 C.3     1  UNL1       -0.0334
     15 C           4.1758  -11.8906    1.0990 C.3     1  UNL1       -0.0126
     16 C           4.4161  -10.3576    1.0211 C.3     1  UNL1       -0.0483
     17 C           3.0667   -9.6058    0.8574 C.3     1  UNL1       -0.0529
     18 C           3.3153   -8.0743    0.7802 C.3     1  UNL1       -0.0530
     19 C           1.9694   -7.3161    0.6165 C.3     1  UNL1       -0.0516
     20 C           2.2294   -5.7885    0.5404 C.3     1  UNL1       -0.0375
     21 C           0.8933   -5.0190    0.3768 C.3     1  UNL1        0.0091
     22 N           1.1646   -3.5661    0.3064 N.pl3   1  UNL1       -0.3428
     23 C           1.3103   -0.7290    0.1341 C.3     1  UNL1       -0.0200
     24 C           1.2038    0.7266   -0.3361 C.3     1  UNL1       -0.0483
     25 C           0.0336    1.3806    0.3798 C.3     1  UNL1       -0.0432
     26 C          -1.2546    0.7659   -0.1740 C.3     1  UNL1        0.0328
     27 C          -1.2239   -0.7379   -0.0766 C.ar    1  UNL1        0.1877
     28 N          -2.3772   -1.3966   -0.1341 N.ar    1  UNL1       -0.2077
     29 C          -2.4359   -2.7208   -0.0576 C.ar    1  UNL1        0.2152
     30 C          -3.6668   -3.3620   -0.1264 C.ar    1  UNL1        0.0103
     31 C          -3.7339   -4.7479   -0.0488 C.ar    1  UNL1       -0.0555
     32 C          -2.5707   -5.4942    0.0995 C.ar    1  UNL1       -0.0607
     33 C          -1.3393   -4.8540    0.1699 C.ar    1  UNL1       -0.0465
     34 C          -1.2758   -3.4689    0.0897 C.ar    1  UNL1        0.0674
     35 C          -0.0541   -2.8175    0.1542 C.ar    1  UNL1        0.0498
     36 C          -0.0236   -1.4338    0.0656 C.ar    1  UNL1        0.0408
     37 C           9.5613  -21.4157    2.1712 C.3     1  UNL1       -0.0223
     38 H           7.0018  -22.2062    2.0030 H       1  UNL1        0.0636
     39 H           5.0157  -20.8194    1.7444 H       1  UNL1        0.0625
     40 H           4.0562  -18.6027    1.5201 H       1  UNL1        0.0624
     41 H           4.3446  -16.2009    1.3907 H       1  UNL1        0.0623
     42 H           8.9317  -15.6081    1.7447 H       1  UNL1        0.2922
     43 H           7.0953  -14.4234    2.3903 H       1  UNL1        0.0868
     44 H           7.2347  -14.5408    0.6445 H       1  UNL1        0.0868
     45 H           4.8678  -14.4159    0.4828 H       1  UNL1        0.2017
     46 H           4.7252  -14.3101    2.1383 H       1  UNL1        0.2017
     47 H           6.0070  -12.2947    2.1604 H       1  UNL1        0.0814
     48 H           6.1465  -12.4117    0.4148 H       1  UNL1        0.0814
     49 H           3.5489  -12.1095    1.9380 H       1  UNL1        0.0317
     50 H           3.7013  -12.2195    0.1981 H       1  UNL1        0.0317
     51 H           5.0442  -10.1413    0.1823 H       1  UNL1        0.0267
     52 H           4.8865  -10.0335    1.9258 H       1  UNL1        0.0267
     53 H           2.4379   -9.8205    1.6961 H       1  UNL1        0.0265
     54 H           2.5924   -9.9297   -0.0454 H       1  UNL1        0.0265
     55 H           3.9447   -7.8609   -0.0584 H       1  UNL1        0.0265
     56 H           3.7876   -7.7528    1.6849 H       1  UNL1        0.0265
     57 H           1.3390   -7.5273    1.4549 H       1  UNL1        0.0266
     58 H           1.4917   -7.6374   -0.2854 H       1  UNL1        0.0266
     59 H           2.8610   -5.5799   -0.2977 H       1  UNL1        0.0280
     60 H           2.7029   -5.4720    1.4462 H       1  UNL1        0.0280
     61 H           0.2596   -5.2231    1.2145 H       1  UNL1        0.0461
     62 H           0.4085   -5.3347   -0.5233 H       1  UNL1        0.0461
     63 H           2.0620   -3.1643    0.3571 H       1  UNL1        0.1461
     64 H           1.6588   -0.7426    1.1457 H       1  UNL1        0.0316
     65 H           1.9929   -1.2405   -0.5119 H       1  UNL1        0.0316
     66 H           1.0406    0.7533   -1.3933 H       1  UNL1        0.0269
     67 H           2.1094    1.2510   -0.1129 H       1  UNL1        0.0269
     68 H           0.0403    2.4354    0.2004 H       1  UNL1        0.0270
     69 H           0.1023    1.2182    1.4352 H       1  UNL1        0.0270
     70 H          -1.3629    1.0474   -1.2006 H       1  UNL1        0.0372
     71 H          -2.0794    1.1271    0.4041 H       1  UNL1        0.0372
     72 H          -3.2133   -0.8870   -0.2365 H       1  UNL1        0.4531
     73 H          -4.5313   -2.8089   -0.2351 H       1  UNL1        0.0683
     74 H          -4.6483   -5.2235   -0.1013 H       1  UNL1        0.0620
     75 H          -2.6215   -6.5233    0.1573 H       1  UNL1        0.0618
     76 H          -0.4746   -5.4061    0.2814 H       1  UNL1        0.0626
     77 H          10.4254  -20.7856    2.2047 H       1  UNL1        0.0292
     78 H           9.6419  -22.0878    1.3426 H       1  UNL1        0.0292
     79 H           9.4933  -21.9764    3.0800 H       1  UNL1        0.0292
@<TRIPOS>UNITY_ATOM_ATTR
13 1
charge 1
28 1
charge 1
@<TRIPOS>BOND
     1     1     2   ar
     2     2     3   ar
     3     3     4   ar
     4     4     5   ar
     5     5     6   ar
     6     6     7   ar
     7     7     8   ar
     8     8     9   ar
     9     9    10   ar
    10     1    10   ar
    11     5    10   ar
    12     9    11    1
    13    14    15    1
    14    15    16    1
    15    16    17    1
    16    17    18    1
    17    18    19    1
    18    19    20    1
    19    20    21    1
    20    23    24    1
    21    24    25    1
    22    25    26    1
    23    26    27    1
    24    27    28   ar
    25    28    29   ar
    26    29    30   ar
    27    30    31   ar
    28    31    32   ar
    29    32    33   ar
    30    33    34   ar
    31    29    34   ar
    32    34    35   ar
    33    35    36   ar
    34    27    36   ar
    35    23    36    1
    36    22    35    1
    37    21    22    1
    38    13    14    1
    39    12    13    1
    40     8    12    1
    41     2    37    1
    42     3    38    1
    43     4    39    1
    44     6    40    1
    45     7    41    1
    46    11    42    1
    47    12    43    1
    48    12    44    1
    49    13    45    1
    50    13    46    1
    51    14    47    1
    52    14    48    1
    53    15    49    1
    54    15    50    1
    55    16    51    1
    56    16    52    1
    57    17    53    1
    58    17    54    1
    59    18    55    1
    60    18    56    1
    61    19    57    1
    62    19    58    1
    63    20    59    1
    64    20    60    1
    65    21    61    1
    66    21    62    1
    67    22    63    1
    68    23    64    1
    69    23    65    1
    70    24    66    1
    71    24    67    1
    72    25    68    1
    73    25    69    1
    74    26    70    1
    75    26    71    1
    76    28    72    1
    77    30    73    1
    78    31    74    1
    79    32    75    1
    80    33    76    1
    81    37    77    1
    82    37    78    1
    83    37    79    1
@<TRIPOS>MOLECULE
BDB50200343
 41 44 0 0 0
SMALL
GASTEIGER

@<TRIPOS>ATOM
      1 N           2.3595   -1.3594    0.0107 N.ar    1  UNL1       -0.2076
      2 C           0.0231   -2.7894   -0.0009 C.ar    1  UNL1        0.0476
      3 C           1.2027   -0.7068    0.0116 C.ar    1  UNL1        0.2166
      4 C           0.0026   -1.4042    0.0056 C.ar    1  UNL1        0.0673
      5 C          -1.2064   -0.7189    0.0006 C.ar    1  UNL1       -0.0451
      6 C          -1.2129    0.6705    0.0010 C.ar    1  UNL1       -0.0424
      7 C          -0.0122    1.3708    0.0050 C.ar    1  UNL1        0.0472
      8 C           1.1951    0.6822    0.0100 C.ar    1  UNL1        0.0286
      9 C           1.2469   -3.4440   -0.0028 C.ar    1  UNL1        0.0440
     10 C           2.4182   -2.6869    0.0066 C.ar    1  UNL1        0.1885
     11 C           3.7736   -3.3437   -0.0220 C.3     1  UNL1        0.0390
     12 C           3.6831   -4.8012    0.4326 C.3     1  UNL1       -0.0126
     13 C           2.6338   -5.4856   -0.4327 C.3     1  UNL1       -0.0389
     14 C           1.2715   -4.9596   -0.0104 C.3     1  UNL1       -0.0040
     15 N          -1.1979   -3.5302   -0.0104 N.pl3   1  UNL1       -0.3570
     16 C           0.9785   -5.5015    1.3932 C.3     1  UNL1       -0.0246
     17 C           3.3225   -4.8594    1.9031 C.2     1  UNL1       -0.0811
     18 C           2.0999   -5.1728    2.3415 C.2     1  UNL1       -0.0729
     19 C           1.8412   -5.2155    3.8216 C.3     1  UNL1       -0.0346
     20 C           3.1234   -4.8532    4.5980 C.3     1  UNL1       -0.0616
     21 CL         -0.0192    3.0878    0.0020 Cl      1  UNL1       -0.0833
     22 H           3.1985   -0.8443    0.0131 H       1  UNL1        0.4531
     23 H          -2.0969   -1.2405   -0.0034 H       1  UNL1        0.0627
     24 H          -2.1090    1.1824   -0.0017 H       1  UNL1        0.0632
     25 H           2.0861    1.2030    0.0125 H       1  UNL1        0.0698
     26 H           4.4339   -2.8131    0.6317 H       1  UNL1        0.0378
     27 H           4.1436   -3.3209   -1.0257 H       1  UNL1        0.0378
     28 H           4.6209   -5.3037    0.3192 H       1  UNL1        0.0348
     29 H           2.6764   -6.5449   -0.2877 H       1  UNL1        0.0277
     30 H           2.8101   -5.2805   -1.4680 H       1  UNL1        0.0277
     31 H           0.5262   -5.2845   -0.7060 H       1  UNL1        0.0355
     32 H          -1.1765   -4.5145   -0.0150 H       1  UNL1        0.1424
     33 H          -2.0610   -3.0566   -0.0124 H       1  UNL1        0.1424
     34 H           0.8638   -6.5641    1.3414 H       1  UNL1        0.0316
     35 H           0.0807   -5.0454    1.7548 H       1  UNL1        0.0316
     36 H           4.0551   -4.6471    2.5982 H       1  UNL1        0.0575
     37 H           1.5279   -6.2008    4.0972 H       1  UNL1        0.0307
     38 H           1.0759   -4.5075    4.0624 H       1  UNL1        0.0307
     39 H           3.8940   -5.5571    4.3623 H       1  UNL1        0.0233
     40 H           2.9240   -4.8812    5.6489 H       1  UNL1        0.0233
     41 H           3.4419   -3.8698    4.3215 H       1  UNL1        0.0233
@<TRIPOS>UNITY_ATOM_ATTR
1 1
charge 1
@<TRIPOS>BOND
     1     4     5   ar
     2     9     2   ar
     3     5     6   ar
     4     9    14    1
     5    10    11    1
     6    12    11    1
     7    12    13    1
     8    14    13    1
     9     2     4   ar
    10     2    15    1
    11     6     7   ar
    12    14    16    1
    13     3     1   ar
    14    12    17    1
    15    17    18    2
    16     7     8   ar
    17    16    18    1
    18     8     3   ar
    19    18    19    1
    20     9    10   ar
    21     1    10   ar
    22     3     4   ar
    23    19    20    1
    24     7    21    1
    25     1    22    1
    26     5    23    1
    27     6    24    1
    28     8    25    1
    29    11    26    1
    30    11    27    1
    31    12    28    1
    32    13    29    1
    33    13    30    1
    34    14    31    1
    35    15    32    1
    36    15    33    1
    37    16    34    1
    38    16    35    1
    39    17    36    1
    40    19    37    1
    41    19    38    1
    42    20    39    1
    43    20    40    1
    44    20    41    1
@<TRIPOS>MOLECULE
BDB50271473
 79 85 0 0 0
SMALL
GASTEIGER

@<TRIPOS>ATOM
      1 C           3.8754    3.4724    0.1613 C.3     1  UNL1        0.0051
      2 C           2.5463    2.9052   -0.2655 C.3     1  UNL1        0.0145
      3 N           2.4228    1.4702   -0.0438 N.pl3   1  UNL1       -0.3425
      4 C           2.3801   -2.6998    0.0046 C.ar    1  UNL1       -0.0607
      5 C           1.1950   -3.4232    0.0070 C.ar    1  UNL1       -0.0555
      6 C          -0.0206   -2.7520    0.0140 C.ar    1  UNL1        0.0103
      7 C           2.3439   -1.3111    0.0042 C.ar    1  UNL1       -0.0465
      8 C           1.1282   -0.6346    0.0105 C.ar    1  UNL1        0.0674
      9 C          -0.0524   -1.3633    0.0183 C.ar    1  UNL1        0.2152
     10 N          -1.2235   -0.7480    0.0235 N.ar    1  UNL1       -0.2077
     11 C           1.0921    0.7572   -0.0017 C.ar    1  UNL1        0.0498
     12 C          -0.1735    1.3776    0.0181 C.ar    1  UNL1        0.0408
     13 C          -1.3157    0.5732    0.0278 C.ar    1  UNL1        0.1877
     14 C          -2.7147    1.1576    0.0116 C.3     1  UNL1        0.0328
     15 C          -2.7447    2.6298    0.4055 C.3     1  UNL1       -0.0432
     16 C          -1.7272    3.3434   -0.4432 C.3     1  UNL1       -0.0483
     17 C          -0.3625    2.8978    0.0462 C.3     1  UNL1       -0.0200
     18 C           3.7031    4.9476    0.0824 C.ar    1  UNL1        0.0431
     19 C           9.4416   13.1448   -0.0332 C.ar    1  UNL1       -0.0607
     20 C           9.1993   14.5119   -0.0356 C.ar    1  UNL1       -0.0555
     21 C           7.8919   14.9788   -0.0283 C.ar    1  UNL1        0.0103
     22 C           8.3765   12.2524   -0.0267 C.ar    1  UNL1       -0.0465
     23 C           7.0654   12.7160   -0.0193 C.ar    1  UNL1        0.0674
     24 C           6.8292   14.0832   -0.0182 C.ar    1  UNL1        0.2152
     25 N           5.5940   14.5541   -0.0142 N.ar    1  UNL1       -0.2077
     26 C           5.9972   11.8215   -0.0220 C.ar    1  UNL1        0.0498
     27 C           4.6951   12.3601   -0.0065 C.ar    1  UNL1        0.0408
     28 C           4.5419   13.7486   -0.0050 C.ar    1  UNL1        0.1877
     29 C           3.1783   14.4107   -0.0221 C.3     1  UNL1        0.0328
     30 C           2.0559   13.4608    0.3792 C.3     1  UNL1       -0.0432
     31 C           2.1923   12.2227   -0.4651 C.3     1  UNL1       -0.0483
     32 C           3.4301   11.4960    0.0250 C.3     1  UNL1       -0.0200
     33 N           6.3433   10.3512   -0.0494 N.pl3   1  UNL1       -0.3425
     34 C           5.3476    9.3015   -0.2272 C.3     1  UNL1        0.0145
     35 C           5.8454    7.9225    0.1217 C.3     1  UNL1        0.0051
     36 C           4.6369    7.0565    0.0611 C.ar    1  UNL1        0.0431
     37 C           3.3823    7.6484   -0.0531 C.ar    1  UNL1       -0.0403
     38 C           2.2502    6.8502   -0.0966 C.ar    1  UNL1       -0.0584
     39 C           2.4205    5.4764   -0.0298 C.ar    1  UNL1       -0.0403
     40 N           4.7649    5.7392    0.1281 N.ar    1  UNL1       -0.2564
     41 H           4.6528    3.1481   -0.4985 H       1  UNL1        0.0343
     42 H           4.1549    3.1507    1.1428 H       1  UNL1        0.0343
     43 H           2.4166    3.0979   -1.3100 H       1  UNL1        0.0465
     44 H           1.7973    3.3795    0.3336 H       1  UNL1        0.0465
     45 H           3.2436    0.9419    0.0843 H       1  UNL1        0.1461
     46 H           3.2866   -3.1931    0.0031 H       1  UNL1        0.0618
     47 H           1.2175   -4.4550    0.0036 H       1  UNL1        0.0620
     48 H          -0.9033   -3.2867    0.0160 H       1  UNL1        0.0683
     49 H           3.2266   -0.7765   -0.0008 H       1  UNL1        0.0626
     50 H          -2.0479   -1.2862    0.0242 H       1  UNL1        0.4531
     51 H          -3.3230    0.6074    0.6988 H       1  UNL1        0.0372
     52 H          -3.0826    1.0848   -0.9905 H       1  UNL1        0.0372
     53 H          -2.4969    2.7365    1.4409 H       1  UNL1        0.0270
     54 H          -3.7202    3.0420    0.2527 H       1  UNL1        0.0270
     55 H          -1.8313    4.4025   -0.3316 H       1  UNL1        0.0269
     56 H          -1.8593    3.1115   -1.4794 H       1  UNL1        0.0269
     57 H           0.3839    3.3441   -0.5772 H       1  UNL1        0.0316
     58 H          -0.2754    3.2085    1.0664 H       1  UNL1        0.0316
     59 H          10.4114   12.7919   -0.0362 H       1  UNL1        0.0618
     60 H           9.9875   15.1780   -0.0428 H       1  UNL1        0.0620
     61 H           7.7085   15.9944   -0.0304 H       1  UNL1        0.0683
     62 H           8.5600   11.2368   -0.0274 H       1  UNL1        0.0626
     63 H           5.4521   15.5283   -0.0182 H       1  UNL1        0.4531
     64 H           2.9850   14.7699   -1.0113 H       1  UNL1        0.0372
     65 H           3.1976   15.2070    0.6924 H       1  UNL1        0.0372
     66 H           1.1063   13.9212    0.2028 H       1  UNL1        0.0270
     67 H           2.1195   13.2182    1.4194 H       1  UNL1        0.0270
     68 H           2.3047   12.4892   -1.4953 H       1  UNL1        0.0269
     69 H           1.3240   11.6029   -0.3830 H       1  UNL1        0.0269
     70 H           3.2607   11.1792    1.0329 H       1  UNL1        0.0316
     71 H           3.5945   10.6708   -0.6359 H       1  UNL1        0.0316
     72 H           7.2863   10.0895    0.0579 H       1  UNL1        0.1461
     73 H           5.0396    9.2993   -1.2519 H       1  UNL1        0.0465
     74 H           4.5427    9.5200    0.4431 H       1  UNL1        0.0465
     75 H           6.2681    7.9117    1.1046 H       1  UNL1        0.0343
     76 H           6.6147    7.5901   -0.5436 H       1  UNL1        0.0343
     77 H           3.2956    8.6754   -0.1051 H       1  UNL1        0.0635
     78 H           1.3091    7.2661   -0.1763 H       1  UNL1        0.0619
     79 H           1.6015    4.8494   -0.0630 H       1  UNL1        0.0635
@<TRIPOS>UNITY_ATOM_ATTR
10 1
charge 1
25 1
charge 1
@<TRIPOS>BOND
     1     9    10   ar
     2    19    20   ar
     3    10    13   ar
     4    20    21   ar
     5    21    24   ar
     6     5     6   ar
     7    23    22   ar
     8    22    19   ar
     9    12    11   ar
    10    11     8   ar
    11    23    24   ar
    12    12    13   ar
    13    24    25   ar
    14    25    28   ar
    15     6     9   ar
    16    27    26   ar
    17    26    23   ar
    18    27    28   ar
    19     1     2    1
    20     8     7   ar
    21     7     4   ar
    22     4     5   ar
    23    12    17    1
    24    27    32    1
    25    28    29    1
    26    29    30    1
    27    30    31    1
    28    31    32    1
    29    13    14    1
    30    26    33    1
    31    14    15    1
    32    33    34    1
    33    15    16    1
    34    34    35    1
    35    16    17    1
    36    35    36    1
    37    11     3    1
    38    36    37   ar
    39     8     9   ar
    40    37    38   ar
    41     1    18    1
    42    38    39   ar
    43    39    18   ar
    44     2     3    1
    45    18    40   ar
    46    40    36   ar
    47     1    41    1
    48     1    42    1
    49     2    43    1
    50     2    44    1
    51     3    45    1
    52     4    46    1
    53     5    47    1
    54     6    48    1
    55     7    49    1
    56    10    50    1
    57    14    51    1
    58    14    52    1
    59    15    53    1
    60    15    54    1
    61    16    55    1
    62    16    56    1
    63    17    57    1
    64    17    58    1
    65    19    59    1
    66    20    60    1
    67    21    61    1
    68    22    62    1
    69    25    63    1
    70    29    64    1
    71    29    65    1
    72    30    66    1
    73    30    67    1
    74    31    68    1
    75    31    69    1
    76    32    70    1
    77    32    71    1
    78    33    72    1
    79    34    73    1
    80    34    74    1
    81    35    75    1
    82    35    76    1
    83    37    77    1
    84    38    78    1
    85    39    79    1
@<TRIPOS>MOLECULE
BDB50039721
 62 66 0 0 0
SMALL
GASTEIGER

@<TRIPOS>ATOM
      1 N           1.7032   -2.7074   -0.0004 N.ar    1  UNL1       -0.0821
      2 C           1.1926   -0.6855   -0.0002 C.ar    1  UNL1        0.1692
      3 C           0.0071   -1.3562   -0.0003 C.ar    1  UNL1        0.0444
      4 O           2.1626   -1.5463   -0.0002 O.2     1  UNL1       -0.3543
      5 C           0.3687   -2.6808   -0.0004 C.ar    1  UNL1        0.0913
      6 C           1.2379    0.6984   -0.0001 C.ar    1  UNL1        0.0050
      7 N          -0.0025    2.8024    0.0001 N.pl3   1  UNL1       -0.3254
      8 C           0.0141    1.3694    0.0000 C.ar    1  UNL1        0.0334
      9 N          -3.3628   -7.4793   -0.0025 N.4     1  UNL1        0.2385
     10 C          -1.2251   -0.7275   -0.0002 C.ar    1  UNL1       -0.0474
     11 C          -1.1972    0.6668   -0.0001 C.ar    1  UNL1       -0.0398
     12 C          -0.5488   -3.8608   -0.0005 C.3     1  UNL1       -0.0063
     13 O          -0.0368    5.3163    1.3098 O.3     1  UNL1       -0.3767
     14 C          -4.3104   -8.6458   -0.0029 C.3     1  UNL1       -0.0059
     15 C          -2.5228   -7.5414    1.2106 C.3     1  UNL1       -0.0313
     16 C          -2.5212   -7.5416   -1.2144 C.3     1  UNL1       -0.0313
     17 C           0.2773   -5.1611   -0.0008 C.3     1  UNL1       -0.0443
     18 C          -3.7111  -10.0722   -0.0023 C.ar    1  UNL1       -0.0029
     19 C          -0.6726   -6.3753   -0.0011 C.3     1  UNL1       -0.0311
     20 C          -1.5644   -6.3359   -1.2483 C.3     1  UNL1       -0.0095
     21 C          -1.5645   -6.3365    1.2460 C.3     1  UNL1       -0.0095
     22 C           1.1839    3.6439    0.0332 C.3     1  UNL1        0.0357
     23 C          -1.2108    3.6123    0.0309 C.3     1  UNL1        0.0357
     24 C          -1.2016    4.4791    1.3048 C.3     1  UNL1        0.0634
     25 C           1.1491    4.5093    1.3074 C.3     1  UNL1        0.0634
     26 C          -2.3424  -10.3149   -0.0017 C.ar    1  UNL1       -0.0535
     27 C          -4.6041  -11.1402   -0.0025 C.ar    1  UNL1       -0.0535
     28 C          -4.1282  -12.4454   -0.0020 C.ar    1  UNL1       -0.0613
     29 C          -1.8661  -11.6214   -0.0012 C.ar    1  UNL1       -0.0613
     30 C          -2.7587  -12.6858   -0.0013 C.ar    1  UNL1       -0.0617
     31 H           2.1344    1.2096   -0.0001 H       1  UNL1        0.0674
     32 H          -3.8815   -6.6010   -0.0030 H       1  UNL1        0.2037
     33 H          -2.1105   -1.2576   -0.0002 H       1  UNL1        0.0626
     34 H          -2.0863    1.1908   -0.0001 H       1  UNL1        0.0636
     35 H          -1.1660   -3.8313   -0.8741 H       1  UNL1        0.0330
     36 H          -1.1634   -3.8318    0.8749 H       1  UNL1        0.0330
     37 H          -4.9214   -8.5584   -0.8769 H       1  UNL1        0.0867
     38 H          -4.8230   -8.5723    0.9334 H       1  UNL1        0.0867
     39 H          -1.9536   -8.4474    1.2022 H       1  UNL1        0.0814
     40 H          -3.1513   -7.5175    2.0762 H       1  UNL1        0.0814
     41 H          -1.9512   -8.4471   -1.2047 H       1  UNL1        0.0814
     42 H          -3.1482   -7.5191   -2.0811 H       1  UNL1        0.0814
     43 H           0.8943   -5.1915    0.8729 H       1  UNL1        0.0272
     44 H           0.8937   -5.1911   -0.8749 H       1  UNL1        0.0272
     45 H          -0.0882   -7.2716   -0.0013 H       1  UNL1        0.0304
     46 H          -2.1306   -5.4280   -1.2567 H       1  UNL1        0.0319
     47 H          -0.9584   -6.3781   -2.1292 H       1  UNL1        0.0319
     48 H          -0.9560   -6.3871    2.1247 H       1  UNL1        0.0319
     49 H          -2.1266   -5.4262    1.2619 H       1  UNL1        0.0319
     50 H           1.1994    4.2763   -0.8298 H       1  UNL1        0.0486
     51 H           2.0615    3.0318    0.0356 H       1  UNL1        0.0486
     52 H          -2.0700    2.9746    0.0371 H       1  UNL1        0.0486
     53 H          -1.2465    4.2413   -0.8340 H       1  UNL1        0.0486
     54 H          -2.0795    5.0905    1.3257 H       1  UNL1        0.0575
     55 H          -1.1862    3.8443    2.1660 H       1  UNL1        0.0575
     56 H           2.0109    5.1430    1.3309 H       1  UNL1        0.0575
     57 H           1.1477    3.8738    2.1682 H       1  UNL1        0.0575
     58 H          -1.6789   -9.5245   -0.0016 H       1  UNL1        0.0622
     59 H          -5.6206  -10.9622   -0.0030 H       1  UNL1        0.0622
     60 H          -4.7910  -13.2364   -0.0021 H       1  UNL1        0.0618
     61 H          -0.8497  -11.8002   -0.0008 H       1  UNL1        0.0618
     62 H          -2.4052  -13.6554   -0.0009 H       1  UNL1        0.0618
@<TRIPOS>UNITY_ATOM_ATTR
9 1
charge 1
@<TRIPOS>BOND
     1     2     4   ar
     2     3     5   ar
     3     4     1   ar
     4     5     1   ar
     5     6     2   ar
     6     7     8    1
     7     8     6   ar
     8     9    15    1
     9    10     3   ar
    10    11    10   ar
    11    12     5    1
    12    13    24    1
    13    14     9    1
    14    15    21    1
    15    16    20    1
    16    17    12    1
    17    18    14    1
    18    19    17    1
    19    20    19    1
    20    21    19    1
    21    22     7    1
    22    23     7    1
    23    24    23    1
    24    25    22    1
    25    26    18   ar
    26    27    18   ar
    27    28    27   ar
    28    29    26   ar
    29    30    28   ar
    30     3     2   ar
    31    11     8   ar
    32     9    16    1
    33    13    25    1
    34    30    29   ar
    35     6    31    1
    36     9    32    1
    37    10    33    1
    38    11    34    1
    39    12    35    1
    40    12    36    1
    41    14    37    1
    42    14    38    1
    43    15    39    1
    44    15    40    1
    45    16    41    1
    46    16    42    1
    47    17    43    1
    48    17    44    1
    49    19    45    1
    50    20    46    1
    51    20    47    1
    52    21    48    1
    53    21    49    1
    54    22    50    1
    55    22    51    1
    56    23    52    1
    57    23    53    1
    58    24    54    1
    59    24    55    1
    60    25    56    1
    61    25    57    1
    62    26    58    1
    63    27    59    1
    64    28    60    1
    65    29    61    1
    66    30    62    1
@<TRIPOS>MOLECULE
BDB50008578
 41 43 0 0 0
SMALL
GASTEIGER

@<TRIPOS>ATOM
      1 N           1.7176   -2.9754   -0.0005 N.am    1  UNL1       -0.2341
      2 C           2.2971   -1.6864   -0.0003 C.2     1  UNL1        0.2538
      3 C           0.3115   -2.8326   -0.0004 C.2     1  UNL1        0.2538
      4 C           1.2100   -0.7201   -0.0002 C.ar    1  UNL1        0.0494
      5 C           0.0184   -1.4079   -0.0003 C.ar    1  UNL1        0.0494
      6 C           2.4343   -4.2168   -0.0006 C.3     1  UNL1        0.0232
      7 N           4.6963   -8.2080   -0.0024 N.4     1  UNL1        0.2331
      8 O           3.5041   -1.4289   -0.0003 O.2     1  UNL1       -0.2695
      9 O          -0.5152   -3.7490   -0.0005 O.2     1  UNL1       -0.2695
     10 C           5.0761   -7.4564    1.2108 C.3     1  UNL1       -0.0319
     11 C           5.0774   -7.4548   -1.2142 C.3     1  UNL1       -0.0319
     12 C           3.9554   -3.9567   -0.0005 C.3     1  UNL1       -0.0335
     13 C           4.7105   -5.3002   -0.0008 C.3     1  UNL1       -0.0300
     14 C          -1.2047   -0.7582   -0.0002 C.ar    1  UNL1       -0.0489
     15 C           1.2591    0.6640    0.0000 C.ar    1  UNL1       -0.0489
     16 C           4.3319   -6.1082   -1.2481 C.3     1  UNL1       -0.0095
     17 C           4.3319   -6.1088    1.2462 C.3     1  UNL1       -0.0095
     18 C           5.3838   -9.5073   -0.0029 C.3     1  UNL1       -0.0431
     19 C           0.0369    1.3353    0.0001 C.ar    1  UNL1       -0.0610
     20 C          -1.1747    0.6359    0.0000 C.ar    1  UNL1       -0.0610
     21 H           2.1718   -4.7759   -0.8743 H       1  UNL1        0.0470
     22 H           2.1753   -4.7684    0.8789 H       1  UNL1        0.0470
     23 H           3.6858   -8.3468   -0.0030 H       1  UNL1        0.2030
     24 H           6.1313   -7.2790    1.2026 H       1  UNL1        0.0814
     25 H           4.8124   -8.0276    2.0763 H       1  UNL1        0.0814
     26 H           6.1324   -7.2765   -1.2043 H       1  UNL1        0.0814
     27 H           4.8159   -8.0250   -2.0810 H       1  UNL1        0.0814
     28 H           4.2211   -3.3992    0.8733 H       1  UNL1        0.0283
     29 H           4.2205   -3.4003   -0.8752 H       1  UNL1        0.0283
     30 H           5.7626   -5.1052   -0.0008 H       1  UNL1        0.0305
     31 H          -2.0949   -1.2804   -0.0003 H       1  UNL1        0.0625
     32 H           2.1565    1.1737    0.0001 H       1  UNL1        0.0625
     33 H           3.2762   -6.2821   -1.2568 H       1  UNL1        0.0319
     34 H           4.6040   -5.5649   -2.1288 H       1  UNL1        0.0319
     35 H           4.6123   -5.5665    2.1249 H       1  UNL1        0.0319
     36 H           3.2755   -6.2780    1.2620 H       1  UNL1        0.0319
     37 H           6.4423   -9.3507   -0.0022 H       1  UNL1        0.0777
     38 H           5.1052  -10.0579   -0.8771 H       1  UNL1        0.0777
     39 H           5.1043  -10.0590    0.8702 H       1  UNL1        0.0777
     40 H           0.0259    2.3672    0.0003 H       1  UNL1        0.0618
     41 H          -2.0628    1.1615    0.0001 H       1  UNL1        0.0618
@<TRIPOS>UNITY_ATOM_ATTR
7 1
charge 1
@<TRIPOS>BOND
     1     2     1   am
     2     3     1   am
     3     4     2    1
     4     5     3    1
     5     6     1    1
     6     7    10    1
     7     8     2    2
     8     9     3    2
     9    10    17    1
    10    11    16    1
    11    12     6    1
    12    13    12    1
    13    14     5   ar
    14    15     4   ar
    15    16    13    1
    16    17    13    1
    17    18     7    1
    18    19    15   ar
    19    20    14   ar
    20     5     4   ar
    21    20    19   ar
    22    11     7    1
    23     6    21    1
    24     6    22    1
    25     7    23    1
    26    10    24    1
    27    10    25    1
    28    11    26    1
    29    11    27    1
    30    12    28    1
    31    12    29    1
    32    13    30    1
    33    14    31    1
    34    15    32    1
    35    16    33    1
    36    16    34    1
    37    17    35    1
    38    17    36    1
    39    18    37    1
    40    18    38    1
    41    18    39    1
    42    19    40    1
    43    20    41    1
@<TRIPOS>MOLECULE
BDB50032163
 54 58 0 0 0
SMALL
GASTEIGER

@<TRIPOS>ATOM
      1 C           1.1390   -0.6794   -0.0002 C.ar    1  UNL1        0.0460
      2 N           3.1580    0.1170   -0.0001 N.ar    1  UNL1       -0.0821
      3 N          -2.4725   -1.1969   -0.0002 N.am    1  UNL1       -0.2850
      4 C          -1.1901   -0.7008   -0.0002 C.ar    1  UNL1        0.0379
      5 C           1.1513    0.6893   -0.0001 C.ar    1  UNL1        0.1679
      6 O           2.3829    1.0955    0.0000 O.2     1  UNL1       -0.3544
      7 C          -0.0160   -1.4471   -0.0003 C.ar    1  UNL1       -0.0276
      8 C          -3.3339   -0.0843   -0.0001 C.2     1  UNL1        0.2216
      9 C           2.4679   -1.0252   -0.0002 C.ar    1  UNL1        0.0914
     10 C          -1.1927    0.6882   -0.0001 C.ar    1  UNL1       -0.0138
     11 C          -0.0184    1.4361    0.0000 C.ar    1  UNL1       -0.0107
     12 N           4.7636   -6.6537    0.0010 N.4     1  UNL1        0.2385
     13 C          -2.5880    1.2488    0.0000 C.3     1  UNL1        0.0513
     14 O          -4.5657   -0.1731    0.0001 O.2     1  UNL1       -0.2751
     15 C           3.0325   -2.4092   -0.0003 C.3     1  UNL1       -0.0063
     16 C           5.3015   -8.0571    0.0012 C.3     1  UNL1       -0.0059
     17 C           5.2365   -5.9567   -1.2121 C.3     1  UNL1       -0.0313
     18 C           5.2378   -5.9556    1.2129 C.3     1  UNL1       -0.0313
     19 C           4.5715   -2.3424   -0.0002 C.3     1  UNL1       -0.0443
     20 C           6.8366   -8.2496    0.0003 C.ar    1  UNL1       -0.0029
     21 C           5.1496   -3.7715   -0.0002 C.3     1  UNL1       -0.0311
     22 C           4.6706   -4.5248    1.2470 C.3     1  UNL1       -0.0095
     23 C           4.6707   -4.5249   -1.2473 C.3     1  UNL1       -0.0095
     24 C           7.7301   -7.1848   -0.0004 C.ar    1  UNL1       -0.0535
     25 C           7.3164   -9.5565    0.0002 C.ar    1  UNL1       -0.0535
     26 C           8.6849   -9.7955   -0.0005 C.ar    1  UNL1       -0.0613
     27 C           9.0999   -7.4240   -0.0012 C.ar    1  UNL1       -0.0613
     28 C           9.5768   -8.7288   -0.0012 C.ar    1  UNL1       -0.0617
     29 H          -2.7364   -2.1454   -0.0003 H       1  UNL1        0.1548
     30 H          -0.0055   -2.4790   -0.0004 H       1  UNL1        0.0644
     31 H          -0.0178    2.4681    0.0001 H       1  UNL1        0.0659
     32 H           3.7437   -6.6648    0.0017 H       1  UNL1        0.2037
     33 H          -2.7936    1.8314   -0.8736 H       1  UNL1        0.0408
     34 H          -2.8277    1.9280    0.7912 H       1  UNL1        0.0408
     35 H           2.6992   -2.9292   -0.8740 H       1  UNL1        0.0330
     36 H           2.7004   -2.9273    0.8750 H       1  UNL1        0.0330
     37 H           4.9199   -8.5437   -0.8720 H       1  UNL1        0.0867
     38 H           4.9830   -8.4639    0.9382 H       1  UNL1        0.0867
     39 H           4.9068   -6.4900   -2.0791 H       1  UNL1        0.0814
     40 H           6.3055   -5.9131   -1.1995 H       1  UNL1        0.0814
     41 H           4.9097   -6.4884    2.0809 H       1  UNL1        0.0814
     42 H           6.3068   -5.9113    1.1992 H       1  UNL1        0.0814
     43 H           4.9056   -1.8228    0.8735 H       1  UNL1        0.0272
     44 H           4.9053   -1.8234   -0.8743 H       1  UNL1        0.0272
     45 H           6.2180   -3.7123   -0.0002 H       1  UNL1        0.0304
     46 H           5.0169   -4.0218    2.1256 H       1  UNL1        0.0319
     47 H           3.6012   -4.5587    1.2621 H       1  UNL1        0.0319
     48 H           3.6014   -4.5613   -1.2566 H       1  UNL1        0.0319
     49 H           5.0111   -4.0218   -2.1282 H       1  UNL1        0.0319
     50 H           7.3763   -6.2153   -0.0003 H       1  UNL1        0.0622
     51 H           6.6548  -10.3485    0.0006 H       1  UNL1        0.0622
     52 H           9.0395  -10.7647   -0.0005 H       1  UNL1        0.0618
     53 H           9.7621   -6.6324   -0.0018 H       1  UNL1        0.0618
     54 H          10.5934   -8.9064   -0.0017 H       1  UNL1        0.0618
@<TRIPOS>UNITY_ATOM_ATTR
12 1
charge 1
@<TRIPOS>BOND
     1     2     9   ar
     2     3     4    1
     3     4     7   ar
     4     5     1   ar
     5     6     5   ar
     6     7     1   ar
     7     8     3   am
     8     9     1   ar
     9    10     4   ar
    10    11     5   ar
    11    12    17    1
    12    13    10    1
    13    14     8    2
    14    15     9    1
    15    16    12    1
    16    17    23    1
    17    18    22    1
    18    19    15    1
    19    20    16    1
    20    21    19    1
    21    22    21    1
    22    23    21    1
    23    24    20   ar
    24    25    20   ar
    25    26    25   ar
    26    27    24   ar
    27    28    26   ar
    28    11    10   ar
    29     2     6   ar
    30    13     8    1
    31    18    12    1
    32    27    28   ar
    33     3    29    1
    34     7    30    1
    35    11    31    1
    36    12    32    1
    37    13    33    1
    38    13    34    1
    39    15    35    1
    40    15    36    1
    41    16    37    1
    42    16    38    1
    43    17    39    1
    44    17    40    1
    45    18    41    1
    46    18    42    1
    47    19    43    1
    48    19    44    1
    49    21    45    1
    50    22    46    1
    51    22    47    1
    52    23    48    1
    53    23    49    1
    54    24    50    1
    55    25    51    1
    56    26    52    1
    57    27    53    1
    58    28    54    1
@<TRIPOS>MOLECULE
BDB10516
 30 32 0 0 0
SMALL
GASTEIGER

@<TRIPOS>ATOM
      1 C           1.2118   -0.6915   -0.0008 C.ar    1  UNL1        0.0576
      2 C           1.1935    0.6977    0.0003 C.ar    1  UNL1       -0.0240
      3 C          -0.0123    1.3844    0.0011 C.ar    1  UNL1        0.0486
      4 C          -1.2074    0.6792    0.0029 C.ar    1  UNL1        0.0287
      5 C           0.0100   -1.4031   -0.0011 C.ar    1  UNL1        0.0855
      6 C          -1.1970   -0.7096    0.0023 C.ar    1  UNL1        0.2181
      7 C          -0.0258   -2.7946   -0.0047 C.ar    1  UNL1        0.0487
      8 C          -1.2536   -3.4397   -0.0033 C.ar    1  UNL1        0.0406
      9 C          -2.4229   -2.6835    0.0061 C.ar    1  UNL1        0.1876
     10 C          -1.2772   -4.9472   -0.0001 C.3     1  UNL1       -0.0200
     11 C          -3.7838   -3.3337   -0.0002 C.3     1  UNL1        0.0328
     12 C          -3.7013   -4.8015    0.4292 C.3     1  UNL1       -0.0432
     13 C          -2.6454   -5.4815   -0.4284 C.3     1  UNL1       -0.0483
     14 N          -2.3558   -1.3581    0.0057 N.ar    1  UNL1       -0.2076
     15 N           1.1631   -3.5855   -0.0087 N.pl3   1  UNL1       -0.3569
     16 CL          2.7369   -1.4808   -0.0029 Cl      1  UNL1       -0.0826
     17 CL         -0.0244    3.1013    0.0006 Cl      1  UNL1       -0.0833
     18 H           2.0823    1.2222    0.0005 H       1  UNL1        0.0647
     19 H          -2.1055    1.1876    0.0047 H       1  UNL1        0.0698
     20 H          -1.0596   -5.2973    0.9873 H       1  UNL1        0.0316
     21 H          -0.5440   -5.2984   -0.6958 H       1  UNL1        0.0316
     22 H          -4.1902   -3.2820   -0.9887 H       1  UNL1        0.0372
     23 H          -4.4099   -2.8134    0.6942 H       1  UNL1        0.0372
     24 H          -4.6489   -5.2766    0.2836 H       1  UNL1        0.0270
     25 H          -3.4423   -4.8726    1.4649 H       1  UNL1        0.0270
     26 H          -2.6844   -6.5407   -0.2816 H       1  UNL1        0.0269
     27 H          -2.8180   -5.2772   -1.4644 H       1  UNL1        0.0269
     28 H          -3.1922   -0.8388    0.0080 H       1  UNL1        0.4531
     29 H           2.0452   -3.1483   -0.0098 H       1  UNL1        0.1424
     30 H           1.1007   -4.5680   -0.0104 H       1  UNL1        0.1424
@<TRIPOS>UNITY_ATOM_ATTR
14 1
charge 1
@<TRIPOS>BOND
     1     1     2   ar
     2     1     5   ar
     3     2     3   ar
     4     3     4   ar
     5     4     6   ar
     6     7     5   ar
     7     6     5   ar
     8     6    14   ar
     9     7     8   ar
    10    14     9   ar
    11    10     8    1
    12     9     8   ar
    13     9    11    1
    14    10    13    1
    15    11    12    1
    16    12    13    1
    17     7    15    1
    18     3    17    1
    19     1    16    1
    20     2    18    1
    21     4    19    1
    22    10    20    1
    23    10    21    1
    24    11    22    1
    25    11    23    1
    26    12    24    1
    27    12    25    1
    28    13    26    1
    29    13    27    1
    30    14    28    1
    31    15    29    1
    32    15    30    1
@<TRIPOS>MOLECULE
BDB50271192
 83 88 0 0 0
SMALL
GASTEIGER

@<TRIPOS>ATOM
      1 C          13.0931    1.0378    0.6930 C.ar    1  UNL1        0.1618
      2 C          13.0944    1.0358   -0.7016 C.ar    1  UNL1        0.1618
      3 C          12.7478   -0.1134   -1.4073 C.ar    1  UNL1       -0.0129
      4 C          12.7431   -0.1087    1.4015 C.ar    1  UNL1       -0.0129
      5 C          12.3926   -1.2426    0.6863 C.ar    1  UNL1       -0.0402
      6 C          12.3966   -1.2453   -0.6893 C.ar    1  UNL1       -0.0402
      7 C          11.9549   -2.5219   -1.2833 C.3     1  UNL1       -0.0242
      8 C          11.7575   -3.4168    0.0006 C.3     1  UNL1       -0.0328
      9 C          11.9508   -2.5191    1.2834 C.3     1  UNL1       -0.0242
     10 O          13.4444    2.1996   -1.3879 O.3     1  UNL1       -0.4914
     11 C          13.3742    1.9827   -2.8018 C.3     1  UNL1        0.0790
     12 O          13.4443    2.2030    1.3763 O.3     1  UNL1       -0.4914
     13 C          13.3729    1.9900    2.7907 C.3     1  UNL1        0.0790
     14 C          10.4595   -4.3356   -0.0074 C.3     1  UNL1       -0.0464
     15 C           9.0542   -3.5880   -0.0128 C.3     1  UNL1       -0.0312
     16 C           8.8420   -2.7379    1.2521 C.3     1  UNL1       -0.0095
     17 C           7.4862   -2.0492    1.1904 C.3     1  UNL1       -0.0316
     18 N           7.4141   -1.2071   -0.0100 N.4     1  UNL1        0.2353
     19 C           7.5011   -2.0252   -1.2242 C.3     1  UNL1       -0.0316
     20 C           8.8555   -2.7216   -1.2730 C.3     1  UNL1       -0.0095
     21 C           6.1502   -0.5309    0.0024 C.3     1  UNL1       -0.0305
     22 C           5.0029   -1.5465   -0.1010 C.3     1  UNL1        0.0030
     23 C           3.7946   -0.7326    0.2478 C.3     1  UNL1        0.0140
     24 N           2.5017   -1.3689    0.0141 N.pl3   1  UNL1       -0.3426
     25 C           1.2134   -0.5721   -0.0204 C.ar    1  UNL1        0.0498
     26 N          -1.2433    0.6928   -0.0103 N.ar    1  UNL1       -0.2076
     27 C          -0.1433    1.4283   -0.0186 C.ar    1  UNL1        0.1877
     28 C           1.1215    0.8362   -0.0253 C.ar    1  UNL1        0.0408
     29 C           2.3426    1.7638   -0.0698 C.3     1  UNL1       -0.0200
     30 C           2.0544    3.1661    0.4256 C.3     1  UNL1       -0.0483
     31 C           0.9255    3.6910   -0.4164 C.3     1  UNL1       -0.0432
     32 C          -0.3325    2.9328   -0.0119 C.3     1  UNL1        0.0328
     33 C           0.0220   -1.2945   -0.0296 C.ar    1  UNL1        0.0675
     34 C          -1.1957   -0.6284   -0.0213 C.ar    1  UNL1        0.2166
     35 C          -2.3878   -1.3397   -0.0101 C.ar    1  UNL1        0.0286
     36 C          -2.3721   -2.7272   -0.0027 C.ar    1  UNL1        0.0472
     37 C          -1.1582   -3.4021   -0.0079 C.ar    1  UNL1       -0.0424
     38 C           0.0334   -2.6861   -0.0216 C.ar    1  UNL1       -0.0451
     39 CL         -3.8545   -3.6015    0.0132 Cl      1  UNL1       -0.0833
     40 H          12.7524   -0.1219   -2.4393 H       1  UNL1        0.0658
     41 H          12.7447   -0.1138    2.4335 H       1  UNL1        0.0658
     42 H          12.7014   -2.9296   -1.9325 H       1  UNL1        0.0316
     43 H          11.0807   -2.4384   -1.8947 H       1  UNL1        0.0316
     44 H          12.5207   -4.1667    0.0084 H       1  UNL1        0.0307
     45 H          11.0328   -2.4022    1.8205 H       1  UNL1        0.0316
     46 H          12.6337   -2.9245    2.0005 H       1  UNL1        0.0316
     47 H          13.6447    2.8821   -3.3145 H       1  UNL1        0.0660
     48 H          12.3765    1.7051   -3.0709 H       1  UNL1        0.0660
     49 H          14.0489    1.1989   -3.0763 H       1  UNL1        0.0660
     50 H          13.6444    2.8904    3.3011 H       1  UNL1        0.0660
     51 H          14.0463    1.2060    3.0678 H       1  UNL1        0.0660
     52 H          12.3747    1.7145    3.0600 H       1  UNL1        0.0660
     53 H          10.4945   -4.9538    0.8653 H       1  UNL1        0.0271
     54 H          10.4980   -4.8684   -0.9345 H       1  UNL1        0.0271
     55 H           8.3149   -4.3615   -0.0227 H       1  UNL1        0.0304
     56 H           9.6130   -1.9988    1.3166 H       1  UNL1        0.0319
     57 H           8.8767   -3.3720    2.1133 H       1  UNL1        0.0319
     58 H           6.7131   -2.7881    1.1537 H       1  UNL1        0.0814
     59 H           7.3584   -1.4390    2.0600 H       1  UNL1        0.0814
     60 H           8.1901   -0.5451   -0.0084 H       1  UNL1        0.2033
     61 H           7.3912   -1.3988   -2.0847 H       1  UNL1        0.0814
     62 H           6.7231   -2.7597   -1.2152 H       1  UNL1        0.0814
     63 H           9.6302   -1.9851   -1.3214 H       1  UNL1        0.0319
     64 H           8.8943   -3.3497   -2.1384 H       1  UNL1        0.0319
     65 H           6.1017    0.1425   -0.8277 H       1  UNL1        0.0815
     66 H           6.0540    0.0115    0.9197 H       1  UNL1        0.0815
     67 H           5.1378   -2.3500    0.5926 H       1  UNL1        0.0332
     68 H           4.9353   -2.0073   -1.0643 H       1  UNL1        0.0332
     69 H           3.8266    0.1654   -0.3331 H       1  UNL1        0.0463
     70 H           3.8501   -0.5746    1.3046 H       1  UNL1        0.0463
     71 H           2.4659   -2.3429   -0.1250 H       1  UNL1        0.1461
     72 H          -2.1197    1.1410    0.0044 H       1  UNL1        0.4531
     73 H           2.6842    1.8257   -1.0819 H       1  UNL1        0.0316
     74 H           3.0801    1.3449    0.5825 H       1  UNL1        0.0316
     75 H           2.9201    3.7843    0.3105 H       1  UNL1        0.0269
     76 H           1.7954    3.1647    1.4638 H       1  UNL1        0.0269
     77 H           1.1347    3.5266   -1.4528 H       1  UNL1        0.0270
     78 H           0.7984    4.7428   -0.2662 H       1  UNL1        0.0270
     79 H          -0.6120    3.2372    0.9751 H       1  UNL1        0.0372
     80 H          -1.0912    3.1639   -0.7301 H       1  UNL1        0.0372
     81 H          -3.2881   -0.8352   -0.0073 H       1  UNL1        0.0698
     82 H          -1.1408   -4.4339   -0.0016 H       1  UNL1        0.0632
     83 H           0.9337   -3.1906   -0.0259 H       1  UNL1        0.0627
@<TRIPOS>UNITY_ATOM_ATTR
18 1
charge 1
26 1
charge 1
@<TRIPOS>BOND
     1    17    18    1
     2    18    19    1
     3    19    20    1
     4     9     5    1
     5    18    21    1
     6     5     4   ar
     7    21    22    1
     8     2    10    1
     9    22    23    1
    10     4     1   ar
    11    23    24    1
    12    25    24    1
    13    10    11    1
    14    25    28   ar
    15     5     6   ar
    16    27    26   ar
    17    26    34   ar
    18    33    25   ar
    19    27    28   ar
    20     1    12    1
    21     1     2   ar
    22    12    13    1
    23     8    14    1
    24     2     3   ar
    25    27    32    1
    26    28    29    1
    27    29    30    1
    28    30    31    1
    29    31    32    1
    30    14    15    1
    31    15    16    1
    32    33    34   ar
    33     3     6   ar
    34    34    35   ar
    35    35    36   ar
    36     6     7    1
    37    36    37   ar
    38     7     8    1
    39    37    38   ar
    40    38    33   ar
    41     8     9    1
    42    36    39    1
    43    15    20    1
    44    16    17    1
    45     3    40    1
    46     4    41    1
    47     7    42    1
    48     7    43    1
    49     8    44    1
    50     9    45    1
    51     9    46    1
    52    11    47    1
    53    11    48    1
    54    11    49    1
    55    13    50    1
    56    13    51    1
    57    13    52    1
    58    14    53    1
    59    14    54    1
    60    15    55    1
    61    16    56    1
    62    16    57    1
    63    17    58    1
    64    17    59    1
    65    18    60    1
    66    19    61    1
    67    19    62    1
    68    20    63    1
    69    20    64    1
    70    21    65    1
    71    21    66    1
    72    22    67    1
    73    22    68    1
    74    23    69    1
    75    23    70    1
    76    24    71    1
    77    26    72    1
    78    29    73    1
    79    29    74    1
    80    30    75    1
    81    30    76    1
    82    31    77    1
    83    31    78    1
    84    32    79    1
    85    32    80    1
    86    35    81    1
    87    37    82    1
    88    38    83    1
@<TRIPOS>MOLECULE
BDB50004016
 65 69 0 0 0
SMALL
GASTEIGER

@<TRIPOS>ATOM
      1 N           1.7149   -2.9641   -0.0004 N.am    1  UNL1       -0.2341
      2 C           2.2951   -1.6754   -0.0003 C.2     1  UNL1        0.2539
      3 C           0.3094   -2.8206   -0.0004 C.2     1  UNL1        0.2538
      4 C           1.2080   -0.7077   -0.0002 C.ar    1  UNL1        0.0512
      5 C           0.0164   -1.3956   -0.0003 C.ar    1  UNL1        0.0495
      6 C           1.1826    3.5903    0.0003 C.2     1  UNL1        0.2483
      7 C           2.4307   -4.2060   -0.0005 C.3     1  UNL1        0.0232
      8 N           0.0214    2.7716    0.0001 N.am    1  UNL1       -0.2815
      9 N           4.6898   -8.1989   -0.0022 N.4     1  UNL1        0.2385
     10 C          -1.2058   -0.7451   -0.0002 C.ar    1  UNL1       -0.0471
     11 C           1.2566    0.6764   -0.0001 C.ar    1  UNL1       -0.0276
     12 O           3.5024   -1.4192   -0.0002 O.2     1  UNL1       -0.2695
     13 O          -0.5173   -3.7371   -0.0005 O.2     1  UNL1       -0.2695
     14 C           0.0356    1.3507    0.0000 C.ar    1  UNL1        0.0344
     15 O           2.3218    3.1108    0.0004 O.2     1  UNL1       -0.2699
     16 C           1.0276    5.0430    0.0003 C.ar    1  UNL1        0.0370
     17 C           5.4017   -9.5224   -0.0026 C.3     1  UNL1       -0.0059
     18 C          -1.1748    0.6489   -0.0001 C.ar    1  UNL1       -0.0397
     19 C           5.0715   -7.4460   -1.2140 C.3     1  UNL1       -0.0313
     20 C           5.0701   -7.4475    1.2110 C.3     1  UNL1       -0.0313
     21 C           3.9520   -3.9470   -0.0004 C.3     1  UNL1       -0.0335
     22 C           4.7061   -5.2911   -0.0007 C.3     1  UNL1       -0.0300
     23 C           6.9489   -9.5182   -0.0017 C.ar    1  UNL1       -0.0029
     24 C           4.3269   -6.0988   -1.2480 C.3     1  UNL1       -0.0094
     25 C           4.3269   -6.0993    1.2464 C.3     1  UNL1       -0.0094
     26 C          -0.2419    5.6066    0.0002 C.ar    1  UNL1       -0.0496
     27 C           2.1522    5.8609    0.0005 C.ar    1  UNL1       -0.0496
     28 C           7.6997   -8.3484   -0.0007 C.ar    1  UNL1       -0.0535
     29 C           7.5909  -10.7535   -0.0017 C.ar    1  UNL1       -0.0535
     30 C           2.0057    7.2424    0.0005 C.ar    1  UNL1       -0.0610
     31 C          -0.3885    6.9894    0.0003 C.ar    1  UNL1       -0.0610
     32 C           8.9788  -10.8165   -0.0009 C.ar    1  UNL1       -0.0613
     33 C           9.0888   -8.4115    0.0001 C.ar    1  UNL1       -0.0613
     34 C           9.7278   -9.6451    0.0000 C.ar    1  UNL1       -0.0617
     35 C           0.7350    7.8067    0.0004 C.ar    1  UNL1       -0.0617
     36 H           2.1678   -4.7649   -0.8742 H       1  UNL1        0.0470
     37 H           2.1713   -4.7574    0.8790 H       1  UNL1        0.0470
     38 H          -0.8549    3.2204    0.0000 H       1  UNL1        0.1551
     39 H           3.6796   -8.3397   -0.0029 H       1  UNL1        0.2037
     40 H          -2.0964   -1.2666   -0.0002 H       1  UNL1        0.0626
     41 H           2.1545    1.1852   -0.0001 H       1  UNL1        0.0644
     42 H           5.0860  -10.0526   -0.8768 H       1  UNL1        0.0867
     43 H           5.1364   -9.9674    0.9336 H       1  UNL1        0.0867
     44 H          -2.0632    1.1740   -0.0001 H       1  UNL1        0.0636
     45 H           6.1266   -7.2684   -1.2041 H       1  UNL1        0.0814
     46 H           4.8096   -8.0160   -2.0808 H       1  UNL1        0.0814
     47 H           6.1254   -7.2709    1.2028 H       1  UNL1        0.0814
     48 H           4.8059   -8.0185    2.0765 H       1  UNL1        0.0814
     49 H           4.2181   -3.3897    0.8734 H       1  UNL1        0.0283
     50 H           4.2175   -3.3908   -0.8751 H       1  UNL1        0.0283
     51 H           5.7583   -5.0970   -0.0007 H       1  UNL1        0.0305
     52 H           3.2710   -6.2719   -1.2567 H       1  UNL1        0.0319
     53 H           4.5994   -5.5557   -2.1287 H       1  UNL1        0.0319
     54 H           4.6078   -5.5571    2.1251 H       1  UNL1        0.0319
     55 H           3.2703   -6.2677    1.2623 H       1  UNL1        0.0319
     56 H          -1.0762    4.9992    0.0001 H       1  UNL1        0.0625
     57 H           3.0953    5.4418    0.0006 H       1  UNL1        0.0625
     58 H           7.2255   -7.4318   -0.0006 H       1  UNL1        0.0622
     59 H           7.0354  -11.6232   -0.0023 H       1  UNL1        0.0622
     60 H           2.8400    7.8498    0.0006 H       1  UNL1        0.0618
     61 H          -1.3316    7.4084    0.0003 H       1  UNL1        0.0618
     62 H           9.4538  -11.7327   -0.0010 H       1  UNL1        0.0618
     63 H           9.6449   -7.5422    0.0008 H       1  UNL1        0.0618
     64 H          10.7587   -9.6920    0.0006 H       1  UNL1        0.0618
     65 H           0.6263    8.8330    0.0004 H       1  UNL1        0.0618
@<TRIPOS>UNITY_ATOM_ATTR
9 1
charge 1
@<TRIPOS>BOND
     1     2     1   am
     2     3     1   am
     3     4     2    1
     4     5     3    1
     5     6     8   am
     6     7     1    1
     7     8    14    1
     8     9    20    1
     9    10     5   ar
    10    11     4   ar
    11    12     2    2
    12    13     3    2
    13    14    11   ar
    14    15     6    2
    15    16     6    1
    16    17     9    1
    17    18    10   ar
    18    19    24    1
    19    20    25    1
    20    21     7    1
    21    22    21    1
    22    23    17    1
    23    24    22    1
    24    25    22    1
    25    26    16   ar
    26    27    16   ar
    27    28    23   ar
    28    29    23   ar
    29    30    27   ar
    30    31    26   ar
    31    32    29   ar
    32    33    28   ar
    33    34    32   ar
    34    35    30   ar
    35     5     4   ar
    36    14    18   ar
    37     9    19    1
    38    35    31   ar
    39    34    33   ar
    40     7    36    1
    41     7    37    1
    42     8    38    1
    43     9    39    1
    44    10    40    1
    45    11    41    1
    46    17    42    1
    47    17    43    1
    48    18    44    1
    49    19    45    1
    50    19    46    1
    51    20    47    1
    52    20    48    1
    53    21    49    1
    54    21    50    1
    55    22    51    1
    56    24    52    1
    57    24    53    1
    58    25    54    1
    59    25    55    1
    60    26    56    1
    61    27    57    1
    62    28    58    1
    63    29    59    1
    64    30    60    1
    65    31    61    1
    66    32    62    1
    67    33    63    1
    68    34    64    1
    69    35    65    1
@<TRIPOS>MOLECULE
BDB50055206
 31 31 0 0 0
SMALL
GASTEIGER

@<TRIPOS>ATOM
      1 C           1.2101   -0.7082   -0.0002 C.ar    1  UNL1        0.0455
      2 C           1.2106    0.6817   -0.0001 C.ar    1  UNL1        0.1489
      3 N           2.4549    1.4002    0.0001 N.pl3   1  UNL1       -0.3830
      4 C           0.0059   -1.4022   -0.0002 C.ar    1  UNL1        0.1290
      5 C          -1.1971   -0.7063   -0.0002 C.ar    1  UNL1       -0.0084
      6 C           0.0075    1.3773    0.0000 C.ar    1  UNL1        0.0041
      7 C          -1.1965    0.6834   -0.0001 C.ar    1  UNL1       -0.0494
      8 O           0.0048   -2.8023   -0.0003 O.3     1  UNL1       -0.4946
      9 C           3.6777    0.5836    0.0479 C.3     1  UNL1        0.0812
     10 C           2.3768    2.4946    0.9816 C.3     1  UNL1        0.0812
     11 C           2.4062    2.3198   -1.1469 C.3     1  UNL1        0.0812
     12 C          -2.4949   -1.4544   -0.0002 C.3     1  UNL1       -0.0362
     13 C           1.3432   -3.3195   -0.0003 C.3     1  UNL1        0.0788
     14 H           2.1035   -1.2247   -0.0003 H       1  UNL1        0.0718
     15 H           0.0082    2.4093    0.0001 H       1  UNL1        0.0681
     16 H          -2.0899    1.1999   -0.0001 H       1  UNL1        0.0623
     17 H           3.6448   -0.0582    0.9034 H       1  UNL1        0.0931
     18 H           4.5320    1.2243    0.1153 H       1  UNL1        0.0931
     19 H           3.7456   -0.0092   -0.8403 H       1  UNL1        0.0931
     20 H           2.3942    2.0881    1.9712 H       1  UNL1        0.0931
     21 H           1.4679    3.0401    0.8360 H       1  UNL1        0.0931
     22 H           3.2116    3.1511    0.8510 H       1  UNL1        0.0931
     23 H           2.4498    1.7580   -2.0565 H       1  UNL1        0.0931
     24 H           3.2386    2.9907   -1.1018 H       1  UNL1        0.0931
     25 H           1.4948    2.8796   -1.1168 H       1  UNL1        0.0931
     26 H          -2.3001   -2.5065   -0.0003 H       1  UNL1        0.0279
     27 H          -3.0558   -1.1955   -0.8738 H       1  UNL1        0.0279
     28 H          -3.0558   -1.1956    0.8735 H       1  UNL1        0.0279
     29 H           1.3123   -4.3891   -0.0004 H       1  UNL1        0.0660
     30 H           1.8577   -2.9776    0.8734 H       1  UNL1        0.0660
     31 H           1.8577   -2.9775   -0.8739 H       1  UNL1        0.0660
@<TRIPOS>UNITY_ATOM_ATTR
3 1
charge 1
@<TRIPOS>BOND
     1     2     1   ar
     2     3     2    1
     3     4     1   ar
     4     5     4   ar
     5     6     2   ar
     6     7     5   ar
     7     8     4    1
     8     9     3    1
     9    10     3    1
    10    11     3    1
    11    12     5    1
    12    13     8    1
    13     7     6   ar
    14     1    14    1
    15     6    15    1
    16     7    16    1
    17     9    17    1
    18     9    18    1
    19     9    19    1
    20    10    20    1
    21    10    21    1
    22    10    22    1
    23    11    23    1
    24    11    24    1
    25    11    25    1
    26    12    26    1
    27    12    27    1
    28    12    28    1
    29    13    29    1
    30    13    30    1
    31    13    31    1
@<TRIPOS>MOLECULE
BDB9057
 75 80 0 0 0
SMALL
GASTEIGER

@<TRIPOS>ATOM
      1 C           1.0578   -0.4593    0.0014 C.ar    1  UNL1       -0.0478
      2 C           0.9636    0.9197    0.0091 C.ar    1  UNL1       -0.0428
      3 C          -0.2928    1.5034    0.0121 C.ar    1  UNL1        0.0300
      4 C          -0.0922   -1.2535   -0.0024 C.ar    1  UNL1        0.0403
      5 C          -1.3114   -0.5857    0.0004 C.ar    1  UNL1        0.1617
      6 C          -0.0623   -2.6518   -0.0125 C.ar    1  UNL1        0.0429
      7 N          -2.4500   -1.2702   -0.0043 N.ar    1  UNL1       -0.2319
      8 N           1.2037   -3.4767   -0.0133 N.pl3   1  UNL1       -0.3430
      9 C           2.5371   -2.8764    0.0157 C.3     1  UNL1        0.0091
     10 C           3.6506   -3.8916   -0.0312 C.3     1  UNL1       -0.0375
     11 C           4.9269   -3.0629   -0.0054 C.3     1  UNL1       -0.0516
     12 C           6.1430   -3.9635   -0.0411 C.3     1  UNL1       -0.0530
     13 C           7.3559   -3.0574   -0.0097 C.3     1  UNL1       -0.0516
     14 C           8.6333   -3.8829   -0.0499 C.3     1  UNL1       -0.0375
     15 C           9.7499   -2.8711    0.0126 C.3     1  UNL1        0.0091
     16 N          11.0785   -3.4811   -0.0359 N.pl3   1  UNL1       -0.3430
     17 C          12.3513   -2.6681   -0.0413 C.ar    1  UNL1        0.0429
     18 C          12.3954   -1.2710   -0.0302 C.ar    1  UNL1        0.0403
     19 C          13.6210   -0.6151   -0.0262 C.ar    1  UNL1        0.1617
     20 C          12.6236    1.4837   -0.0071 C.ar    1  UNL1        0.0300
     21 C          11.3614    0.9125   -0.0122 C.ar    1  UNL1       -0.0428
     22 C          11.2529   -0.4652   -0.0240 C.ar    1  UNL1       -0.0478
     23 N          14.7530   -1.3114   -0.0390 N.ar    1  UNL1       -0.2319
     24 C          13.5738   -3.3541   -0.0565 C.ar    1  UNL1       -0.0046
     25 C          13.5899   -4.8690   -0.0685 C.3     1  UNL1       -0.0242
     26 C          14.9316   -5.4209    0.4135 C.3     1  UNL1       -0.0486
     27 C          16.0133   -4.7939   -0.4407 C.3     1  UNL1       -0.0473
     28 C          16.1164   -3.3147   -0.0703 C.3     1  UNL1       -0.0100
     29 C          14.7661   -2.6321   -0.0604 C.ar    1  UNL1        0.0486
     30 C          -2.4756   -2.5911   -0.0152 C.ar    1  UNL1        0.0486
     31 C          -3.8271   -3.2613   -0.0184 C.3     1  UNL1       -0.0100
     32 C          -3.7349   -4.7042    0.4669 C.3     1  UNL1       -0.0473
     33 C          -2.7004   -5.4008   -0.3919 C.3     1  UNL1       -0.0486
     34 C          -1.3190   -4.8452   -0.0314 C.3     1  UNL1       -0.0242
     35 C          -1.2911   -3.3259   -0.0239 C.ar    1  UNL1       -0.0046
     36 N          -1.3793    0.7382    0.0075 N.ar    1  UNL1       -0.2356
     37 N          13.7025    0.7076   -0.0153 N.ar    1  UNL1       -0.2356
     38 H           1.9875   -0.9073   -0.0016 H       1  UNL1        0.0626
     39 H           1.8142    1.5041    0.0126 H       1  UNL1        0.0633
     40 H          -0.3849    2.5313    0.0179 H       1  UNL1        0.0830
     41 H           1.1279   -4.4581   -0.0342 H       1  UNL1        0.1461
     42 H           2.6338   -2.3079    0.9170 H       1  UNL1        0.0461
     43 H           2.6284   -2.2661   -0.8584 H       1  UNL1        0.0461
     44 H           3.5951   -4.4720   -0.9284 H       1  UNL1        0.0280
     45 H           3.6011   -4.5860    0.7814 H       1  UNL1        0.0280
     46 H           4.9485   -2.4770    0.8896 H       1  UNL1        0.0266
     47 H           4.9431   -2.4245   -0.8639 H       1  UNL1        0.0266
     48 H           6.1426   -4.5484   -0.9371 H       1  UNL1        0.0265
     49 H           6.1459   -4.6397    0.7881 H       1  UNL1        0.0265
     50 H           7.3393   -2.4765    0.8887 H       1  UNL1        0.0266
     51 H           7.3310   -2.4131   -0.8636 H       1  UNL1        0.0266
     52 H           8.6879   -4.4485   -0.9565 H       1  UNL1        0.0280
     53 H           8.6830   -4.5884    0.7530 H       1  UNL1        0.0280
     54 H           9.6606   -2.3210    0.9260 H       1  UNL1        0.0461
     55 H           9.6569   -2.2389   -0.8457 H       1  UNL1        0.0461
     56 H          11.1459   -4.4628   -0.0663 H       1  UNL1        0.1461
     57 H          12.7259    2.5106    0.0031 H       1  UNL1        0.0830
     58 H          10.5168    1.5055   -0.0073 H       1  UNL1        0.0633
     59 H          10.3187   -0.9038   -0.0283 H       1  UNL1        0.0626
     60 H          13.4124   -5.2103   -1.0670 H       1  UNL1        0.0314
     61 H          12.8265   -5.2173    0.5955 H       1  UNL1        0.0314
     62 H          14.9499   -6.4851    0.3036 H       1  UNL1        0.0269
     63 H          15.0854   -5.1900    1.4469 H       1  UNL1        0.0269
     64 H          15.7597   -4.8914   -1.4756 H       1  UNL1        0.0269
     65 H          16.9492   -5.2838   -0.2705 H       1  UNL1        0.0269
     66 H          16.7453   -2.8240   -0.7835 H       1  UNL1        0.0328
     67 H          16.5237   -3.2511    0.9171 H       1  UNL1        0.0328
     68 H          -4.2170   -3.2536   -1.0148 H       1  UNL1        0.0328
     69 H          -4.4708   -2.7235    0.6459 H       1  UNL1        0.0328
     70 H          -4.6838   -5.1875    0.3621 H       1  UNL1        0.0269
     71 H          -3.4575   -4.7403    1.4997 H       1  UNL1        0.0269
     72 H          -2.9055   -5.2164   -1.4257 H       1  UNL1        0.0269
     73 H          -2.7289   -6.4562   -0.2182 H       1  UNL1        0.0269
     74 H          -0.6083   -5.1986   -0.7489 H       1  UNL1        0.0314
     75 H          -1.0790   -5.1814    0.9557 H       1  UNL1        0.0314
@<TRIPOS>BOND
     1     1     2   ar
     2     1     4   ar
     3     2     3   ar
     4     3    36   ar
     5    36     5   ar
     6     6     4   ar
     7     5     4   ar
     8     5     7   ar
     9     6    35   ar
    10     7    30   ar
    11     6     8    1
    12     8     9    1
    13     9    10    1
    14    10    11    1
    15    11    12    1
    16    12    13    1
    17    13    14    1
    18    14    15    1
    19    15    16    1
    20    16    17    1
    21    18    17   ar
    22    17    24   ar
    23    23    19   ar
    24    23    29   ar
    25    22    18   ar
    26    19    18   ar
    27    37    19   ar
    28    37    20   ar
    29    20    21   ar
    30    21    22   ar
    31    24    25    1
    32    25    26    1
    33    26    27    1
    34    27    28    1
    35    28    29    1
    36    24    29   ar
    37    30    31    1
    38    31    32    1
    39    32    33    1
    40    33    34    1
    41    34    35    1
    42    30    35   ar
    43     1    38    1
    44     2    39    1
    45     3    40    1
    46     8    41    1
    47     9    42    1
    48     9    43    1
    49    10    44    1
    50    10    45    1
    51    11    46    1
    52    11    47    1
    53    12    48    1
    54    12    49    1
    55    13    50    1
    56    13    51    1
    57    14    52    1
    58    14    53    1
    59    15    54    1
    60    15    55    1
    61    16    56    1
    62    20    57    1
    63    21    58    1
    64    22    59    1
    65    25    60    1
    66    25    61    1
    67    26    62    1
    68    26    63    1
    69    27    64    1
    70    27    65    1
    71    28    66    1
    72    28    67    1
    73    31    68    1
    74    31    69    1
    75    32    70    1
    76    32    71    1
    77    33    72    1
    78    33    73    1
    79    34    74    1
    80    34    75    1
@<TRIPOS>MOLECULE
BDB50055163
 28 28 0 0 0
SMALL
GASTEIGER

@<TRIPOS>ATOM
      1 C           1.2062   -0.7932    0.1049 C.ar    1  UNL1        0.0559
      2 C           1.2870    0.6136    0.0060 C.ar    1  UNL1        0.1518
      3 N           2.5295    1.4843   -0.0315 N.pl3   1  UNL1       -0.3828
      4 C          -0.0575   -1.4054    0.1305 C.ar    1  UNL1        0.1258
      5 O          -0.2486   -2.8157    0.2428 O.3     1  UNL1       -0.5063
      6 C           2.4323   -1.6912    0.1938 C.3     1  UNL1       -0.0302
      7 C           0.1053    1.3454   -0.0671 C.ar    1  UNL1        0.0041
      8 C           3.9241    0.9780   -0.0384 C.3     1  UNL1        0.0812
      9 C           2.3035    2.5527   -1.0179 C.3     1  UNL1        0.0812
     10 C           2.3400    2.4304    1.0784 C.3     1  UNL1        0.0812
     11 C          -1.1376    0.7364   -0.0495 C.ar    1  UNL1       -0.0523
     12 C          -1.2129   -0.6405    0.0516 C.ar    1  UNL1       -0.0195
     13 H           0.4928   -3.3859    0.2999 H       1  UNL1        0.2921
     14 H           3.3173   -1.0906    0.1628 H       1  UNL1        0.0281
     15 H           2.4352   -2.3735   -0.6304 H       1  UNL1        0.0281
     16 H           2.4062   -2.2407    1.1116 H       1  UNL1        0.0281
     17 H           0.1574    2.3737   -0.1366 H       1  UNL1        0.0681
     18 H           4.0502    0.2913   -0.8492 H       1  UNL1        0.0931
     19 H           4.1271    0.4793    0.8863 H       1  UNL1        0.0931
     20 H           4.6008    1.7983   -0.1572 H       1  UNL1        0.0931
     21 H           2.3817    2.1486   -2.0056 H       1  UNL1        0.0931
     22 H           3.0378    3.3199   -0.8873 H       1  UNL1        0.0931
     23 H           1.3267    2.9664   -0.8781 H       1  UNL1        0.0931
     24 H           2.4515    1.9149    2.0094 H       1  UNL1        0.0931
     25 H           1.3598    2.8555    1.0212 H       1  UNL1        0.0931
     26 H           3.0709    3.2090    1.0121 H       1  UNL1        0.0931
     27 H          -1.9978    1.3033   -0.1111 H       1  UNL1        0.0621
     28 H          -2.1353   -1.1030    0.0685 H       1  UNL1        0.0654
@<TRIPOS>UNITY_ATOM_ATTR
3 1
charge 1
@<TRIPOS>BOND
     1     2     1   ar
     2     3     2    1
     3     4     1   ar
     4     5     4    1
     5     6     1    1
     6     7     2   ar
     7     8     3    1
     8     9     3    1
     9    10     3    1
    10    11    12   ar
    11    12     4   ar
    12    11     7   ar
    13     5    13    1
    14     6    14    1
    15     6    15    1
    16     6    16    1
    17     7    17    1
    18     8    18    1
    19     8    19    1
    20     8    20    1
    21     9    21    1
    22     9    22    1
    23     9    23    1
    24    10    24    1
    25    10    25    1
    26    10    26    1
    27    11    27    1
    28    12    28    1
@<TRIPOS>MOLECULE
BDB50318738
 99 105 0 0 0
SMALL
GASTEIGER

@<TRIPOS>ATOM
      1 N           1.1322   -0.8328    0.1444 N.ar    1  UNL1       -0.1896
      2 C           1.1950    0.5213    0.0754 C.ar    1  UNL1        0.2177
      3 C          -0.0469   -1.4946    0.0582 C.ar    1  UNL1        0.2232
      4 C          -1.2327   -0.7196   -0.0285 C.ar    1  UNL1        0.0565
      5 C           0.0267    1.2858    0.0008 C.ar    1  UNL1        0.0542
      6 C          -1.1812    0.6649   -0.0244 C.ar    1  UNL1        0.0020
      7 C           9.1193  -14.6081    0.0117 C.ar    1  UNL1        0.0498
      8 N          11.4188  -16.1443    0.0048 N.ar    1  UNL1       -0.2077
      9 C          10.3947  -14.0062    0.0148 C.ar    1  UNL1        0.0408
     10 C           9.0675  -16.0007    0.0132 C.ar    1  UNL1        0.0674
     11 C          11.5272  -14.8246    0.0117 C.ar    1  UNL1        0.1877
     12 C          10.2402  -16.7437    0.0080 C.ar    1  UNL1        0.2152
     13 C           2.4062    1.2027    0.0797 C.ar    1  UNL1        0.0310
     14 C           0.0638    2.6765   -0.0391 C.ar    1  UNL1       -0.0460
     15 C          -2.3540    1.4294   -0.0299 C.ar    1  UNL1       -0.0513
     16 C          -2.4836   -1.2931   -0.0246 C.ar    1  UNL1       -0.0270
     17 C          -0.2340   -3.1476    0.0948 C.ar    1  UNL1        0.0469
     18 C           2.4425   -1.5381    0.4224 C.3     1  UNL1        0.1565
     19 N           7.7906  -13.8673   -0.0052 N.pl3   1  UNL1       -0.3426
     20 C           2.4483    2.6038    0.0211 C.ar    1  UNL1        0.0308
     21 C          -3.6592   -0.5624   -0.0314 C.ar    1  UNL1        0.0253
     22 C           1.2737    3.3399   -0.0282 C.ar    1  UNL1       -0.0401
     23 C          -3.5993    0.8215   -0.0343 C.ar    1  UNL1       -0.0404
     24 N           3.6915    3.3197    0.0112 N.pl3   1  UNL1       -0.3578
     25 N          -4.8935   -1.2702   -0.0187 N.pl3   1  UNL1       -0.3579
     26 N           5.3824   -9.4942    0.0182 N.4     1  UNL1        0.2272
     27 N           3.8319   -4.7771   -0.0645 N.4     1  UNL1        0.2273
     28 C          10.6069  -12.4897    0.0412 C.3     1  UNL1       -0.0200
     29 C           3.0757   -2.3898   -0.7265 C.3     1  UNL1        0.0470
     30 C           7.8446  -16.6636    0.0069 C.ar    1  UNL1       -0.0465
     31 C           6.3138  -11.8032    0.0464 C.3     1  UNL1        0.0029
     32 C           4.5514   -7.1452    0.0466 C.3     1  UNL1        0.0275
     33 C          12.9343  -14.2589    0.0033 C.3     1  UNL1        0.0328
     34 C          10.1936  -18.1322   -0.0012 C.ar    1  UNL1        0.0103
     35 C           7.6934  -12.4065   -0.1258 C.3     1  UNL1        0.0140
     36 C           5.7846   -8.0708    0.0282 C.3     1  UNL1       -0.0288
     37 C           5.0113   -5.6591    0.0913 C.3     1  UNL1       -0.0288
     38 C           6.5948  -10.2919   -0.0037 C.3     1  UNL1       -0.0322
     39 C           4.2537   -3.3298   -0.1939 C.3     1  UNL1       -0.0278
     40 C           0.8237   -4.0481    0.2057 C.ar    1  UNL1       -0.0483
     41 C          -1.4873   -3.7458   -0.0314 C.ar    1  UNL1       -0.0483
     42 C          11.9770  -12.0633   -0.4498 C.3     1  UNL1       -0.0483
     43 C           7.7943  -18.0524   -0.0039 C.ar    1  UNL1       -0.0607
     44 C          12.9827  -12.7889    0.4007 C.3     1  UNL1       -0.0432
     45 C           8.9710  -18.7897   -0.0078 C.ar    1  UNL1       -0.0555
     46 C          -1.7040   -5.1169   -0.0531 C.ar    1  UNL1       -0.0610
     47 C           0.6402   -5.4287    0.1837 C.ar    1  UNL1       -0.0610
     48 C          -0.6261   -5.9767    0.0511 C.ar    1  UNL1       -0.0617
     49 H          12.2362  -16.6929   -0.0029 H       1  UNL1        0.4531
     50 H           3.2886    0.6696    0.1267 H       1  UNL1        0.0702
     51 H          -0.8167    3.2135   -0.0770 H       1  UNL1        0.0626
     52 H          -2.2903    2.4594   -0.0307 H       1  UNL1        0.0624
     53 H          -2.5487   -2.3230   -0.0162 H       1  UNL1        0.0644
     54 H           2.2812   -2.1935    1.2526 H       1  UNL1        0.1033
     55 H           3.1432   -0.7460    0.5854 H       1  UNL1        0.1033
     56 H           6.9594  -14.3899    0.0679 H       1  UNL1        0.1461
     57 H           1.3043    4.3711   -0.0564 H       1  UNL1        0.0636
     58 H          -4.4625    1.3870   -0.0396 H       1  UNL1        0.0636
     59 H           4.5434    2.8273    0.0452 H       1  UNL1        0.1423
     60 H           3.6928    4.3034   -0.0296 H       1  UNL1        0.1423
     61 H          -4.8964   -2.2547   -0.0170 H       1  UNL1        0.1423
     62 H          -5.7446   -0.7754   -0.0116 H       1  UNL1        0.1423
     63 H           4.8212   -9.6914   -0.8104 H       1  UNL1        0.2013
     64 H           4.8231   -9.7145    0.8423 H       1  UNL1        0.2013
     65 H           3.3180   -5.0514   -0.9018 H       1  UNL1        0.2013
     66 H           3.2423   -4.8721    0.7624 H       1  UNL1        0.2013
     67 H          10.4862  -12.1481    1.0480 H       1  UNL1        0.0316
     68 H           9.8861  -12.0589   -0.6220 H       1  UNL1        0.0316
     69 H           3.4702   -1.7288   -1.4697 H       1  UNL1        0.0379
     70 H           2.3104   -3.0169   -1.1340 H       1  UNL1        0.0379
     71 H           6.9676  -16.1197    0.0103 H       1  UNL1        0.0626
     72 H           5.6612  -12.1005   -0.7477 H       1  UNL1        0.0332
     73 H           5.8246  -12.1138    0.9459 H       1  UNL1        0.0332
     74 H           3.9692   -7.3109   -0.8357 H       1  UNL1        0.0369
     75 H           3.9606   -7.3594    0.9126 H       1  UNL1        0.0369
     76 H          13.3373  -14.3598   -0.9828 H       1  UNL1        0.0372
     77 H          13.5055  -14.8061    0.7238 H       1  UNL1        0.0372
     78 H          11.0704  -18.6764   -0.0031 H       1  UNL1        0.0683
     79 H           8.0469  -12.1366   -1.0990 H       1  UNL1        0.0463
     80 H           8.2755  -12.0166    0.6829 H       1  UNL1        0.0463
     81 H           6.3629   -7.8650   -0.8482 H       1  UNL1        0.0816
     82 H           6.3607   -7.8868    0.9109 H       1  UNL1        0.0816
     83 H           5.7030   -5.4749   -0.7040 H       1  UNL1        0.0816
     84 H           5.4872   -5.4591    1.0285 H       1  UNL1        0.0816
     85 H           7.1317  -10.0735   -0.9031 H       1  UNL1        0.0814
     86 H           7.1622  -10.0403    0.8679 H       1  UNL1        0.0814
     87 H           5.0739   -3.2721   -0.8786 H       1  UNL1        0.0816
     88 H           4.5274   -2.9843    0.7811 H       1  UNL1        0.0816
     89 H           1.7813   -3.6773    0.3082 H       1  UNL1        0.0626
     90 H          -2.3094   -3.1274   -0.1143 H       1  UNL1        0.0626
     91 H          12.0957  -11.0055   -0.3406 H       1  UNL1        0.0269
     92 H          12.1062  -12.2983   -1.4856 H       1  UNL1        0.0269
     93 H           6.8825  -18.5357   -0.0090 H       1  UNL1        0.0618
     94 H          12.7332  -12.6808    1.4356 H       1  UNL1        0.0270
     95 H          13.9638  -12.3882    0.2528 H       1  UNL1        0.0270
     96 H           8.9368  -19.8211   -0.0156 H       1  UNL1        0.0620
     97 H          -2.6612   -5.4912   -0.1462 H       1  UNL1        0.0618
     98 H           1.4583   -6.0522    0.2673 H       1  UNL1        0.0618
     99 H          -0.7609   -6.9997    0.0307 H       1  UNL1        0.0618
@<TRIPOS>UNITY_ATOM_ATTR
1 1
charge 1
8 1
charge 1
26 1
charge 1
27 1
charge 1
@<TRIPOS>BOND
     1     2     1   ar
     2     3     1   ar
     3     4     3   ar
     4     5     2   ar
     5     6     5   ar
     6     7    19    1
     7     8    12   ar
     8     9     7   ar
     9    10     7   ar
    10    11     9   ar
    11    12    10   ar
    12    13     2   ar
    13    14     5   ar
    14    15     6   ar
    15    16     4   ar
    16    17     3    1
    17    18     1    1
    18    19    35    1
    19    20    13   ar
    20    21    16   ar
    21    22    14   ar
    22    23    15   ar
    23    24    20    1
    24    25    21    1
    25    26    36    1
    26    27    39    1
    27    28     9    1
    28    29    18    1
    29    30    10   ar
    30    31    38    1
    31    32    37    1
    32    33    11    1
    33    34    12   ar
    34    35    31    1
    35    36    32    1
    36    37    27    1
    37    38    26    1
    38    39    29    1
    39    40    17   ar
    40    41    17   ar
    41    42    28    1
    42    43    30   ar
    43    44    42    1
    44    45    43   ar
    45    46    41   ar
    46    47    40   ar
    47    48    46   ar
    48     4     6   ar
    49    20    22   ar
    50    23    21   ar
    51    47    48   ar
    52     8    11   ar
    53    45    34   ar
    54    33    44    1
    55     8    49    1
    56    13    50    1
    57    14    51    1
    58    15    52    1
    59    16    53    1
    60    18    54    1
    61    18    55    1
    62    19    56    1
    63    22    57    1
    64    23    58    1
    65    24    59    1
    66    24    60    1
    67    25    61    1
    68    25    62    1
    69    26    63    1
    70    26    64    1
    71    27    65    1
    72    27    66    1
    73    28    67    1
    74    28    68    1
    75    29    69    1
    76    29    70    1
    77    30    71    1
    78    31    72    1
    79    31    73    1
    80    32    74    1
    81    32    75    1
    82    33    76    1
    83    33    77    1
    84    34    78    1
    85    35    79    1
    86    35    80    1
    87    36    81    1
    88    36    82    1
    89    37    83    1
    90    37    84    1
    91    38    85    1
    92    38    86    1
    93    39    87    1
    94    39    88    1
    95    40    89    1
    96    41    90    1
    97    42    91    1
    98    42    92    1
    99    43    93    1
   100    44    94    1
   101    44    95    1
   102    45    96    1
   103    46    97    1
   104    47    98    1
   105    48    99    1
@<TRIPOS>MOLECULE
BDB50263215
 78 83 0 0 0
SMALL
GASTEIGER

@<TRIPOS>ATOM
      1 N           7.3923   -1.1325   -0.0132 N.4     1  UNL1        0.2270
      2 C          17.0895    2.1221   -0.0203 C.ar    1  UNL1       -0.0563
      3 C          18.3520    1.5275   -0.0231 C.ar    1  UNL1       -0.0375
      4 C          15.9922   -0.0364   -0.0228 C.ar    1  UNL1        0.1302
      5 C          15.9218    1.3518   -0.0202 C.ar    1  UNL1       -0.0192
      6 C          17.2505   -0.6097   -0.0255 C.ar    1  UNL1        0.0490
      7 C          18.4035    0.1429   -0.0257 C.ar    1  UNL1        0.0510
      8 N          19.4818   -0.6464   -0.0286 N.ar    1  UNL1       -0.3540
      9 C          17.6526   -1.9263   -0.0284 C.ar    1  UNL1        0.0109
     10 C          19.0298   -1.9040   -0.0303 C.ar    1  UNL1        0.0476
     11 C          19.7633   -3.0788   -0.0334 C.ar    1  UNL1       -0.0378
     12 C          19.0475   -4.2759   -0.0346 C.ar    1  UNL1       -0.0598
     13 C          17.6486   -4.2878   -0.0326 C.ar    1  UNL1       -0.0611
     14 C          16.9186   -3.1003   -0.0295 C.ar    1  UNL1       -0.0519
     15 O          14.8404   -0.8410   -0.0227 O.3     1  UNL1       -0.4913
     16 C          13.6449   -0.0386   -0.0197 C.3     1  UNL1        0.0896
     17 C          12.4037   -0.9634   -0.0197 C.3     1  UNL1       -0.0185
     18 C          11.1049   -0.1199   -0.0164 C.3     1  UNL1       -0.0452
     19 C           9.8714   -1.0590   -0.0164 C.3     1  UNL1       -0.0125
     20 C           8.5633   -0.2273   -0.0132 C.3     1  UNL1       -0.0337
     21 C           1.2058   -0.7058   -0.0041 C.ar    1  UNL1        0.0498
     22 N          -1.1649    0.6656    0.0054 N.ar    1  UNL1       -0.2076
     23 C          -0.0249    1.3463    0.0030 C.ar    1  UNL1        0.2166
     24 C           1.1926    0.6796   -0.0011 C.ar    1  UNL1        0.0675
     25 C           2.3837    1.3953   -0.0025 C.ar    1  UNL1       -0.0451
     26 C           2.3542    2.7846   -0.0012 C.ar    1  UNL1       -0.0424
     27 C           1.1357    3.4536    0.0010 C.ar    1  UNL1        0.0472
     28 C          -0.0533    2.7346    0.0034 C.ar    1  UNL1        0.0286
     29 C          -0.0015   -1.3896   -0.0028 C.ar    1  UNL1        0.0408
     30 C          -1.1917   -0.6628    0.0054 C.ar    1  UNL1        0.1877
     31 C          -2.5349   -1.3484   -0.0033 C.3     1  UNL1        0.0328
     32 C          -2.4162   -2.8122    0.4282 C.3     1  UNL1       -0.0432
     33 C          -1.3418   -3.4663   -0.4270 C.3     1  UNL1       -0.0483
     34 C           0.0140   -2.8974    0.0016 C.3     1  UNL1       -0.0200
     35 CL          1.0971    5.1702    0.0009 Cl      1  UNL1       -0.0833
     36 C           6.1385   -0.3458   -0.0102 C.3     1  UNL1       -0.0322
     37 C           4.9209   -1.3028   -0.0102 C.3     1  UNL1        0.0029
     38 C           3.6014   -0.4932   -0.0070 C.3     1  UNL1        0.0140
     39 N           2.4522   -1.4242   -0.0070 N.pl3   1  UNL1       -0.3426
     40 H           7.4222   -1.7221    0.8186 H       1  UNL1        0.2013
     41 H           7.4196   -1.7122   -0.8520 H       1  UNL1        0.2013
     42 H          17.0158    3.1515   -0.0183 H       1  UNL1        0.0619
     43 H          19.2130    2.0964   -0.0232 H       1  UNL1        0.0638
     44 H          15.0010    1.8178   -0.0182 H       1  UNL1        0.0654
     45 H          20.4232   -0.3583   -0.0293 H       1  UNL1        0.1659
     46 H          20.7953   -3.0689   -0.0348 H       1  UNL1        0.0638
     47 H          19.5605   -5.1714   -0.0370 H       1  UNL1        0.0618
     48 H          17.1488   -5.1907   -0.0334 H       1  UNL1        0.0618
     49 H          15.8866   -3.0964   -0.0281 H       1  UNL1        0.0624
     50 H          13.6285    0.5805   -0.8922 H       1  UNL1        0.0696
     51 H          13.6308    0.5777    0.8549 H       1  UNL1        0.0696
     52 H          12.4248   -1.5824    0.8528 H       1  UNL1        0.0298
     53 H          12.4221   -1.5706   -0.9005 H       1  UNL1        0.0298
     54 H          11.0830    0.4959    0.8584 H       1  UNL1        0.0268
     55 H          11.0807    0.4965   -0.8907 H       1  UNL1        0.0268
     56 H           9.8986   -1.6777    0.8561 H       1  UNL1        0.0317
     57 H           9.8959   -1.6665   -0.8969 H       1  UNL1        0.0317
     58 H           8.5338    0.3913   -0.8857 H       1  UNL1        0.0814
     59 H           8.5363    0.3845    0.8643 H       1  UNL1        0.0814
     60 H          -2.0161    1.1602    0.0072 H       1  UNL1        0.4531
     61 H           3.2873    0.8967   -0.0045 H       1  UNL1        0.0627
     62 H           3.2367    3.3196   -0.0019 H       1  UNL1        0.0632
     63 H          -0.9574    3.2323    0.0055 H       1  UNL1        0.0698
     64 H          -2.9399   -1.3087   -0.9929 H       1  UNL1        0.0372
     65 H          -3.1757   -0.8436    0.6891 H       1  UNL1        0.0372
     66 H          -3.3513   -3.3113    0.2817 H       1  UNL1        0.0270
     67 H          -2.1573   -2.8754    1.4645 H       1  UNL1        0.0270
     68 H          -1.5170   -3.2486   -1.4599 H       1  UNL1        0.0269
     69 H          -1.3578   -4.5282   -0.2968 H       1  UNL1        0.0269
     70 H           0.2403   -3.2413    0.9892 H       1  UNL1        0.0316
     71 H           0.7563   -3.2307   -0.6932 H       1  UNL1        0.0316
     72 H           6.1047    0.2726   -0.8828 H       1  UNL1        0.0814
     73 H           6.1071    0.2670    0.8664 H       1  UNL1        0.0814
     74 H           4.9578   -1.9210    0.8623 H       1  UNL1        0.0332
     75 H           4.9550   -1.9095   -0.8909 H       1  UNL1        0.0332
     76 H           3.5599    0.1247   -0.8795 H       1  UNL1        0.0463
     77 H           3.5623    0.1219    0.8676 H       1  UNL1        0.0463
     78 H           2.5299   -2.4056   -0.0088 H       1  UNL1        0.1461
@<TRIPOS>UNITY_ATOM_ATTR
1 1
charge 1
22 1
charge 1
@<TRIPOS>BOND
     1    18    19    1
     2     4     5   ar
     3    19    20    1
     4    20     1    1
     5     9    10   ar
     6    21    24   ar
     7     5     2   ar
     8    23    22   ar
     9    22    30   ar
    10    29    21   ar
    11    10    11   ar
    12     6     7   ar
    13    23    24   ar
    14    11    12   ar
    15    24    25   ar
    16     3     7   ar
    17    25    26   ar
    18    12    13   ar
    19    26    27   ar
    20    27    28   ar
    21    28    23   ar
    22    29    30   ar
    23    13    14   ar
    24    14     9   ar
    25     6     4   ar
    26     4    15    1
    27     7     8   ar
    28    15    16    1
    29    29    34    1
    30    30    31    1
    31    31    32    1
    32    32    33    1
    33    33    34    1
    34     8    10   ar
    35    27    35    1
    36    16    17    1
    37     1    36    1
    38     9     6   ar
    39    36    37    1
    40    17    18    1
    41    37    38    1
    42     2     3   ar
    43    38    39    1
    44    39    21    1
    45     1    40    1
    46     1    41    1
    47     2    42    1
    48     3    43    1
    49     5    44    1
    50     8    45    1
    51    11    46    1
    52    12    47    1
    53    13    48    1
    54    14    49    1
    55    16    50    1
    56    16    51    1
    57    17    52    1
    58    17    53    1
    59    18    54    1
    60    18    55    1
    61    19    56    1
    62    19    57    1
    63    20    58    1
    64    20    59    1
    65    22    60    1
    66    25    61    1
    67    26    62    1
    68    28    63    1
    69    31    64    1
    70    31    65    1
    71    32    66    1
    72    32    67    1
    73    33    68    1
    74    33    69    1
    75    34    70    1
    76    34    71    1
    77    36    72    1
    78    36    73    1
    79    37    74    1
    80    37    75    1
    81    38    76    1
    82    38    77    1
    83    39    78    1
@<TRIPOS>MOLECULE
BDB50271517
 80 86 0 0 0
SMALL
GASTEIGER

@<TRIPOS>ATOM
      1 C           3.9007    3.6174    0.0942 C.3     1  UNL1       -0.0121
      2 C           2.5395    3.0060   -0.2390 C.3     1  UNL1        0.0131
      3 N           2.4308    1.5363   -0.0355 N.pl3   1  UNL1       -0.3425
      4 C           2.3962   -2.6647    0.0020 C.ar    1  UNL1       -0.0607
      5 C           1.2147   -3.3942    0.0044 C.ar    1  UNL1       -0.0555
      6 C          -0.0024   -2.7273    0.0117 C.ar    1  UNL1        0.0103
      7 C           2.3567   -1.2748    0.0030 C.ar    1  UNL1       -0.0465
      8 C           1.1395   -0.6016    0.0100 C.ar    1  UNL1        0.0674
      9 C          -0.0384   -1.3378    0.0168 C.ar    1  UNL1        0.2152
     10 N          -1.2132   -0.7323    0.0216 N.ar    1  UNL1       -0.2077
     11 C           1.0962    0.7934    0.0017 C.ar    1  UNL1        0.0498
     12 C          -0.1756    1.3998    0.0203 C.ar    1  UNL1        0.0408
     13 C          -1.3133    0.5883    0.0272 C.ar    1  UNL1        0.1877
     14 C          -2.7159    1.1626    0.0105 C.3     1  UNL1        0.0328
     15 C          -2.7547    2.6341    0.4040 C.3     1  UNL1       -0.0432
     16 C          -1.7398    3.3525   -0.4436 C.3     1  UNL1       -0.0483
     17 C          -0.3736    2.9152    0.0486 C.3     1  UNL1       -0.0200
     18 C           3.7161    5.1219    0.0430 C.ar    1  UNL1       -0.0459
     19 C           4.8123    5.9764    0.0794 C.ar    1  UNL1       -0.0583
     20 C          -0.0255   15.0238   -0.0257 C.ar    1  UNL1       -0.0607
     21 C          -1.3582   15.4141   -0.0244 C.ar    1  UNL1       -0.0555
     22 C          -2.3548   14.4443   -0.0150 C.ar    1  UNL1        0.0103
     23 C           0.3069   13.6762   -0.0204 C.ar    1  UNL1       -0.0465
     24 C          -0.6890   12.6973   -0.0109 C.ar    1  UNL1        0.0674
     25 C          -2.0185   13.1028   -0.0064 C.ar    1  UNL1        0.2152
     26 N          -2.9921   12.1972   -0.0001 N.ar    1  UNL1       -0.2077
     27 C          -0.3581   11.3487   -0.0130 C.ar    1  UNL1        0.0498
     28 C          -1.4242   10.4207    0.0053 C.ar    1  UNL1        0.0408
     29 C          -2.7362   10.9046    0.0089 C.ar    1  UNL1        0.1877
     30 C          -3.9352    9.9748   -0.0056 C.3     1  UNL1        0.0328
     31 C          -3.5813    8.5475    0.3927 C.3     1  UNL1       -0.0432
     32 C          -2.4125    8.1226   -0.4541 C.3     1  UNL1       -0.0483
     33 C          -1.2121    8.9087    0.0361 C.3     1  UNL1       -0.0200
     34 N           1.1253   10.9832   -0.0424 N.pl3   1  UNL1       -0.3425
     35 C           1.6230    9.5920   -0.2032 C.3     1  UNL1        0.0131
     36 C           3.1149    9.3851    0.0537 C.3     1  UNL1       -0.0121
     37 C           3.3404    7.8855    0.0232 C.ar    1  UNL1       -0.0459
     38 C           2.2449    7.0298   -0.0261 C.ar    1  UNL1       -0.0583
     39 C           2.4319    5.6527   -0.0169 C.ar    1  UNL1       -0.0583
     40 C           4.6249    7.3558    0.0688 C.ar    1  UNL1       -0.0583
     41 H           4.6311    3.3092   -0.6244 H       1  UNL1        0.0328
     42 H           4.2441    3.3004    1.0568 H       1  UNL1        0.0328
     43 H           2.3279    3.2130   -1.2672 H       1  UNL1        0.0464
     44 H           1.8435    3.4493    0.4422 H       1  UNL1        0.0464
     45 H           3.2591    1.0171    0.0809 H       1  UNL1        0.1461
     46 H           3.3045   -3.1546   -0.0005 H       1  UNL1        0.0618
     47 H           1.2415   -4.4258    0.0008 H       1  UNL1        0.0620
     48 H          -0.8834   -3.2647    0.0133 H       1  UNL1        0.0683
     49 H           3.2381   -0.7380   -0.0015 H       1  UNL1        0.0626
     50 H          -2.0338   -1.2762    0.0210 H       1  UNL1        0.4531
     51 H          -3.3206    0.6086    0.6978 H       1  UNL1        0.0372
     52 H          -3.0838    1.0866   -0.9914 H       1  UNL1        0.0372
     53 H          -2.5089    2.7425    1.4397 H       1  UNL1        0.0270
     54 H          -3.7322    3.0411    0.2500 H       1  UNL1        0.0270
     55 H          -1.8501    4.4111   -0.3333 H       1  UNL1        0.0269
     56 H          -1.8688    3.1187   -1.4798 H       1  UNL1        0.0269
     57 H           0.3714    3.3664   -0.5729 H       1  UNL1        0.0316
     58 H          -0.2907    3.2260    1.0691 H       1  UNL1        0.0316
     59 H           5.7674    5.5870    0.1144 H       1  UNL1        0.0620
     60 H           0.7198   15.7376   -0.0306 H       1  UNL1        0.0618
     61 H          -1.6070   16.4157   -0.0304 H       1  UNL1        0.0620
     62 H          -3.3475   14.7262   -0.0144 H       1  UNL1        0.0683
     63 H           1.2998   13.3949   -0.0235 H       1  UNL1        0.0626
     64 H          -3.9287   12.5004   -0.0022 H       1  UNL1        0.4531
     65 H          -4.3458    9.9620   -0.9936 H       1  UNL1        0.0372
     66 H          -4.6377   10.3443    0.7119 H       1  UNL1        0.0372
     67 H          -4.4153    7.9008    0.2164 H       1  UNL1        0.0270
     68 H          -3.3343    8.4949    1.4325 H       1  UNL1        0.0270
     69 H          -2.6030    8.3437   -1.4835 H       1  UNL1        0.0269
     70 H          -2.2419    7.0693   -0.3747 H       1  UNL1        0.0269
     71 H          -1.0033    8.6159    1.0438 H       1  UNL1        0.0316
     72 H          -0.3996    8.6900   -0.6249 H       1  UNL1        0.0316
     73 H           1.7860   11.7072    0.0500 H       1  UNL1        0.1461
     74 H           1.4170    9.2837   -1.2069 H       1  UNL1        0.0464
     75 H           1.1172    9.0147    0.5423 H       1  UNL1        0.0464
     76 H           3.3862    9.7825    1.0094 H       1  UNL1        0.0328
     77 H           3.7120    9.8862   -0.6793 H       1  UNL1        0.0328
     78 H           1.2900    7.4188   -0.0697 H       1  UNL1        0.0620
     79 H           1.6157    5.0223   -0.0546 H       1  UNL1        0.0620
     80 H           5.4413    7.9865    0.0949 H       1  UNL1        0.0620
@<TRIPOS>UNITY_ATOM_ATTR
10 1
charge 1
26 1
charge 1
@<TRIPOS>BOND
     1     9    10   ar
     2    10    13   ar
     3    20    21   ar
     4     5     6   ar
     5    21    22   ar
     6    22    25   ar
     7    12    11   ar
     8    24    23   ar
     9    23    20   ar
    10    11     8   ar
    11    12    13   ar
    12    24    25   ar
    13     6     9   ar
    14    25    26   ar
    15    26    29   ar
    16     1     2    1
    17    28    27   ar
    18    27    24   ar
    19    28    29   ar
    20     8     7   ar
    21     7     4   ar
    22     4     5   ar
    23    12    17    1
    24    13    14    1
    25    28    33    1
    26    29    30    1
    27    30    31    1
    28    31    32    1
    29    32    33    1
    30    14    15    1
    31    27    34    1
    32    15    16    1
    33    34    35    1
    34    16    17    1
    35    35    36    1
    36    11     3    1
    37    36    37    1
    38     8     9   ar
    39    37    38   ar
    40     1    18    1
    41    38    39   ar
    42    39    18   ar
    43    18    19   ar
    44     2     3    1
    45    19    40   ar
    46    40    37   ar
    47     1    41    1
    48     1    42    1
    49     2    43    1
    50     2    44    1
    51     3    45    1
    52     4    46    1
    53     5    47    1
    54     6    48    1
    55     7    49    1
    56    10    50    1
    57    14    51    1
    58    14    52    1
    59    15    53    1
    60    15    54    1
    61    16    55    1
    62    16    56    1
    63    17    57    1
    64    17    58    1
    65    19    59    1
    66    20    60    1
    67    21    61    1
    68    22    62    1
    69    23    63    1
    70    26    64    1
    71    30    65    1
    72    30    66    1
    73    31    67    1
    74    31    68    1
    75    32    69    1
    76    32    70    1
    77    33    71    1
    78    33    72    1
    79    34    73    1
    80    35    74    1
    81    35    75    1
    82    36    76    1
    83    36    77    1
    84    38    78    1
    85    39    79    1
    86    40    80    1
@<TRIPOS>MOLECULE
BDB50055191
 28 28 0 0 0
SMALL
GASTEIGER

@<TRIPOS>ATOM
      1 N           2.4575   -1.4031   -0.0002 N.pl3   1  UNL1       -0.3809
      2 C           2.3745   -2.4708   -1.0119 C.3     1  UNL1        0.0813
      3 C           2.4019   -2.3401    1.1343 C.3     1  UNL1        0.0813
      4 C           1.2145   -0.6843   -0.0001 C.ar    1  UNL1        0.1491
      5 C           1.2156    0.7056    0.0001 C.ar    1  UNL1        0.0450
      6 C           0.0123    1.4009    0.0000 C.ar    1  UNL1        0.1229
      7 C          -1.1918    0.7067   -0.0001 C.ar    1  UNL1       -0.0198
      8 C          -1.1928   -0.6830   -0.0003 C.ar    1  UNL1       -0.0523
      9 C           0.0105   -1.3785   -0.0002 C.ar    1  UNL1        0.0039
     10 O           0.0128    2.7894    0.0002 O.3     1  UNL1       -0.5066
     11 C           3.6753   -0.5714   -0.0410 C.3     1  UNL1        0.0889
     12 C           4.9294   -1.4691   -0.0085 C.3     1  UNL1       -0.0108
     13 H           1.4566   -3.0070   -0.8901 H       1  UNL1        0.0931
     14 H           3.1986   -3.1423   -0.8902 H       1  UNL1        0.0931
     15 H           2.4080   -2.0386   -1.9902 H       1  UNL1        0.0931
     16 H           1.4921   -2.9014    1.0891 H       1  UNL1        0.0931
     17 H           2.4372   -1.7913    2.0522 H       1  UNL1        0.0931
     18 H           3.2361   -3.0085    1.0861 H       1  UNL1        0.0931
     19 H           2.1096    1.2211    0.0003 H       1  UNL1        0.0718
     20 H          -2.0852    1.2233   -0.0000 H       1  UNL1        0.0654
     21 H          -2.0868   -1.1985   -0.0005 H       1  UNL1        0.0621
     22 H           0.0100   -2.4105   -0.0002 H       1  UNL1        0.0681
     23 H           0.8244    3.2576    0.0003 H       1  UNL1        0.2921
     24 H           3.6781    0.0087   -0.9401 H       1  UNL1        0.0965
     25 H           3.6859    0.0773    0.8098 H       1  UNL1        0.0965
     26 H           4.9240   -2.1203   -0.8575 H       1  UNL1        0.0289
     27 H           4.9273   -2.0525    0.8885 H       1  UNL1        0.0289
     28 H           5.8068   -0.8572   -0.0339 H       1  UNL1        0.0289
@<TRIPOS>UNITY_ATOM_ATTR
1 1
charge 1
@<TRIPOS>BOND
     1     1     2    1
     2     1     3    1
     3     4     5   ar
     4     5     6   ar
     5     6     7   ar
     6     7     8   ar
     7     8     9   ar
     8     4     9   ar
     9     6    10    1
    10     1     4    1
    11    11    12    1
    12     1    11    1
    13     2    13    1
    14     2    14    1
    15     2    15    1
    16     3    16    1
    17     3    17    1
    18     3    18    1
    19     5    19    1
    20     7    20    1
    21     8    21    1
    22     9    22    1
    23    10    23    1
    24    11    24    1
    25    11    25    1
    26    12    26    1
    27    12    27    1
    28    12    28    1
@<TRIPOS>MOLECULE
BDB50055162
 31 31 0 0 0
SMALL
GASTEIGER

@<TRIPOS>ATOM
      1 C           1.2276   -0.8118   -0.0033 C.ar    1  UNL1        0.0561
      2 C           1.2933    0.5957    0.0007 C.ar    1  UNL1        0.1518
      3 N           2.5279    1.4679    0.0017 N.pl3   1  UNL1       -0.3828
      4 C          -0.0126   -1.4442   -0.0021 C.ar    1  UNL1        0.1290
      5 O          -0.0591   -2.8423   -0.0037 O.3     1  UNL1       -0.4946
      6 C           2.4198   -1.7440   -0.0051 C.3     1  UNL1       -0.0302
      7 C           0.0956    1.3071    0.0059 C.ar    1  UNL1        0.0041
      8 C           3.9167    0.9523   -0.0393 C.3     1  UNL1        0.0812
      9 C           2.2964    2.5492   -0.9686 C.3     1  UNL1        0.0812
     10 C           2.3407    2.4021    1.1219 C.3     1  UNL1        0.0812
     11 C          -1.1372    0.6715    0.0054 C.ar    1  UNL1       -0.0523
     12 C          -1.1917   -0.7122    0.0018 C.ar    1  UNL1       -0.0193
     13 C          -1.4162   -3.3007   -0.0005 C.3     1  UNL1        0.0788
     14 H           3.3222   -1.1690   -0.0059 H       1  UNL1        0.0281
     15 H           2.3890   -2.3607   -0.8790 H       1  UNL1        0.0281
     16 H           2.3911   -2.3614    0.8683 H       1  UNL1        0.0281
     17 H           0.1265    2.3386    0.0103 H       1  UNL1        0.0681
     18 H           4.0223    0.2769   -0.8625 H       1  UNL1        0.0931
     19 H           4.1334    0.4383    0.8738 H       1  UNL1        0.0931
     20 H           4.5971    1.7694   -0.1588 H       1  UNL1        0.0931
     21 H           2.3712    2.1590   -1.9621 H       1  UNL1        0.0931
     22 H           3.0301    3.3156   -0.8303 H       1  UNL1        0.0931
     23 H           1.3195    2.9595   -0.8191 H       1  UNL1        0.0931
     24 H           2.4560    1.8772    2.0471 H       1  UNL1        0.0931
     25 H           1.3596    2.8263    1.0724 H       1  UNL1        0.0931
     26 H           3.0702    3.1825    1.0612 H       1  UNL1        0.0931
     27 H          -2.0077    1.2258    0.0077 H       1  UNL1        0.0621
     28 H          -2.1033   -1.1960    0.0020 H       1  UNL1        0.0654
     29 H          -1.4313   -4.3706   -0.0018 H       1  UNL1        0.0660
     30 H          -1.9179   -2.9359   -0.8723 H       1  UNL1        0.0660
     31 H          -1.9131   -2.9380    0.8750 H       1  UNL1        0.0660
@<TRIPOS>UNITY_ATOM_ATTR
3 1
charge 1
@<TRIPOS>BOND
     1     2     1   ar
     2     3     2    1
     3     4     1   ar
     4     5     4    1
     5     6     1    1
     6     7     2   ar
     7     8     3    1
     8     9     3    1
     9    10     3    1
    10    11    12   ar
    11    12     4   ar
    12    13     5    1
    13    11     7   ar
    14     6    14    1
    15     6    15    1
    16     6    16    1
    17     7    17    1
    18     8    18    1
    19     8    19    1
    20     8    20    1
    21     9    21    1
    22     9    22    1
    23     9    23    1
    24    10    24    1
    25    10    25    1
    26    10    26    1
    27    11    27    1
    28    12    28    1
    29    13    29    1
    30    13    30    1
    31    13    31    1
@<TRIPOS>MOLECULE
BDB50318720
 80 85 0 0 0
SMALL
GASTEIGER

@<TRIPOS>ATOM
      1 C           7.5588   14.8793    5.5042 C.ar    1  UNL1       -0.0555
      2 C           6.4024   15.3864    4.9262 C.ar    1  UNL1        0.0103
      3 C           6.8912   12.6585    4.8640 C.ar    1  UNL1       -0.0465
      4 C           7.8037   13.5127    5.4708 C.ar    1  UNL1       -0.0607
      5 C           5.7314   13.1628    4.2842 C.ar    1  UNL1        0.0674
      6 C           5.4922   14.5313    4.3188 C.ar    1  UNL1        0.2152
      7 N           4.3990   15.0414    3.7710 N.ar    1  UNL1       -0.2077
      8 C           4.8098   12.3066    3.6881 C.ar    1  UNL1        0.0498
      9 N           5.1273   10.8332    3.6853 N.pl3   1  UNL1       -0.3428
     10 C           5.5420    0.0007    2.5586 C.ar    1  UNL1        0.0300
     11 N           4.6050   -0.6872    1.9188 N.ar    1  UNL1       -0.2356
     12 C           4.3270    1.9988    2.1213 C.ar    1  UNL1       -0.0478
     13 C           5.4294    1.3752    2.6791 C.ar    1  UNL1       -0.0428
     14 C           3.3490    1.2688    1.4513 C.ar    1  UNL1        0.0403
     15 C           3.5382   -0.1072    1.3757 C.ar    1  UNL1        0.1617
     16 N           2.6595   -0.8762    0.7529 N.ar    1  UNL1       -0.2319
     17 C           2.2066    1.8437    0.8622 C.ar    1  UNL1        0.0429
     18 N           1.9021    3.3245    0.8784 N.pl3   1  UNL1       -0.3430
     19 C           4.6320    8.4375    3.0792 C.3     1  UNL1       -0.0375
     20 C           3.4499    7.8075    2.3365 C.3     1  UNL1       -0.0516
     21 C           3.6282    6.3336    2.2288 C.3     1  UNL1       -0.0516
     22 C           2.4366    5.7081    1.4976 C.3     1  UNL1       -0.0375
     23 C           2.8214    4.2686    1.4951 C.3     1  UNL1        0.0091
     24 C           4.2343    9.8711    3.0692 C.3     1  UNL1        0.0091
     25 C           3.4955   14.2668    3.1925 C.ar    1  UNL1        0.1877
     26 C           3.6515   12.8913    3.1376 C.ar    1  UNL1        0.0408
     27 C           2.5177   12.1362    2.4753 C.3     1  UNL1       -0.0200
     28 C           2.2858   14.9023    2.5775 C.3     1  UNL1        0.0328
     29 C           2.6050   12.2586    0.9526 C.3     1  UNL1       -0.0488
     30 C           2.3626   14.8287    1.0323 C.3     1  UNL1       -0.0435
     31 C           1.8242   13.4894    0.4697 C.3     1  UNL1       -0.0523
     32 C           1.5717   -0.3784    0.1859 C.ar    1  UNL1        0.0486
     33 C           1.3118    0.9843    0.2241 C.ar    1  UNL1       -0.0046
     34 C           0.0727    1.5206   -0.4333 C.3     1  UNL1       -0.0242
     35 C           0.6447   -1.3188   -0.5073 C.3     1  UNL1       -0.0100
     36 C          -1.1911    1.0827    0.3329 C.3     1  UNL1       -0.0489
     37 C          -0.6674   -1.4622    0.2754 C.3     1  UNL1       -0.0476
     38 C          -1.6651   -0.3350   -0.0702 C.3     1  UNL1       -0.0524
     39 H           8.2336   15.5155    5.9568 H       1  UNL1        0.0620
     40 H           6.2189   16.4017    4.9481 H       1  UNL1        0.0683
     41 H           7.0750   11.6432    4.8432 H       1  UNL1        0.0626
     42 H           8.6632   13.1318    5.8965 H       1  UNL1        0.0618
     43 H           4.2562   16.0152    3.7948 H       1  UNL1        0.4531
     44 H           5.9575   10.5177    4.1102 H       1  UNL1        0.1461
     45 H           6.3541   -0.4886    2.9661 H       1  UNL1        0.0830
     46 H           4.2282    3.0228    2.2034 H       1  UNL1        0.0626
     47 H           6.1512    1.9224    3.1737 H       1  UNL1        0.0633
     48 H           1.0710    3.6542    0.4663 H       1  UNL1        0.1461
     49 H           5.5533    8.2806    2.5582 H       1  UNL1        0.0280
     50 H           4.8094    8.0334    4.0540 H       1  UNL1        0.0280
     51 H           3.3869    8.2273    1.3543 H       1  UNL1        0.0266
     52 H           2.5515    8.0087    2.8817 H       1  UNL1        0.0266
     53 H           3.7004    5.9138    3.2103 H       1  UNL1        0.0266
     54 H           4.5221    6.1297    1.6773 H       1  UNL1        0.0266
     55 H           2.3424    6.0905    0.5027 H       1  UNL1        0.0280
     56 H           1.4886    5.9084    1.9516 H       1  UNL1        0.0280
     57 H           2.9498    3.9702    2.5146 H       1  UNL1        0.0461
     58 H           3.7018    4.2248    0.8885 H       1  UNL1        0.0461
     59 H           3.2934    9.9430    3.5735 H       1  UNL1        0.0461
     60 H           4.2300   10.1383    2.0331 H       1  UNL1        0.0461
     61 H           1.5846   12.5409    2.8075 H       1  UNL1        0.0316
     62 H           2.5896   11.1026    2.7426 H       1  UNL1        0.0316
     63 H           2.2345   15.9276    2.8793 H       1  UNL1        0.0372
     64 H           1.4134   14.3775    2.9066 H       1  UNL1        0.0372
     65 H           2.1910   11.3799    0.5038 H       1  UNL1        0.0268
     66 H           3.6317   12.3660    0.6710 H       1  UNL1        0.0268
     67 H           3.3845   14.9388    0.7348 H       1  UNL1        0.0270
     68 H           1.7496   15.6134    0.6406 H       1  UNL1        0.0270
     69 H           0.8035   13.3819    0.7721 H       1  UNL1        0.0265
     70 H           1.9327   13.5309   -0.5940 H       1  UNL1        0.0265
     71 H           0.0201    1.1506   -1.4359 H       1  UNL1        0.0314
     72 H           0.1202    2.5895   -0.4309 H       1  UNL1        0.0314
     73 H           1.1124   -2.2778   -0.5876 H       1  UNL1        0.0328
     74 H           0.4246   -0.9306   -1.4798 H       1  UNL1        0.0328
     75 H          -1.9766    1.7792    0.1263 H       1  UNL1        0.0268
     76 H          -0.9494    1.0615    1.3750 H       1  UNL1        0.0268
     77 H          -0.4521   -1.4255    1.3229 H       1  UNL1        0.0269
     78 H          -1.1146   -2.3968    0.0082 H       1  UNL1        0.0269
     79 H          -1.8289   -0.3453   -1.1275 H       1  UNL1        0.0265
     80 H          -2.5547   -0.5312    0.4910 H       1  UNL1        0.0265
@<TRIPOS>UNITY_ATOM_ATTR
7 1
charge 1
@<TRIPOS>BOND
     1    17    14   ar
     2    26     8   ar
     3    17    18    1
     4     8     5   ar
     5     3     4   ar
     6    19    20    1
     7     8     9    1
     8    20    21    1
     9     4     1   ar
    10    21    22    1
    11     2     6   ar
    12    22    23    1
    13    23    18    1
    14    10    11   ar
    15    19    24    1
    16    24     9    1
    17    11    15   ar
    18    25    26   ar
    19    14    12   ar
    20    26    27    1
    21     5     6   ar
    22    25    28    1
    23    12    13   ar
    24    27    29    1
    25    13    10   ar
    26    28    30    1
    27     5     3   ar
    28    29    31    1
    29    30    31    1
    30     6     7   ar
    31    14    15   ar
    32    32    33   ar
    33     7    25   ar
    34    33    34    1
    35    15    16   ar
    36    32    35    1
    37    16    32   ar
    38    34    36    1
    39     1     2   ar
    40    35    37    1
    41    33    17   ar
    42    36    38    1
    43    37    38    1
    44     1    39    1
    45     2    40    1
    46     3    41    1
    47     4    42    1
    48     7    43    1
    49     9    44    1
    50    10    45    1
    51    12    46    1
    52    13    47    1
    53    18    48    1
    54    19    49    1
    55    19    50    1
    56    20    51    1
    57    20    52    1
    58    21    53    1
    59    21    54    1
    60    22    55    1
    61    22    56    1
    62    23    57    1
    63    23    58    1
    64    24    59    1
    65    24    60    1
    66    27    61    1
    67    27    62    1
    68    28    63    1
    69    28    64    1
    70    29    65    1
    71    29    66    1
    72    30    67    1
    73    30    68    1
    74    31    69    1
    75    31    70    1
    76    34    71    1
    77    34    72    1
    78    35    73    1
    79    35    74    1
    80    36    75    1
    81    36    76    1
    82    37    77    1
    83    37    78    1
    84    38    79    1
    85    38    80    1
@<TRIPOS>MOLECULE
BDB50110300
 72 76 0 0 0
SMALL
GASTEIGER

@<TRIPOS>ATOM
      1 C           1.2331   -0.5709   -0.0067 C.ar    1  UNL1        0.0498
      2 N          -1.2366    0.6780   -0.0068 N.ar    1  UNL1       -0.2077
      3 C           1.1292    0.8352   -0.0088 C.ar    1  UNL1        0.0408
      4 C           0.0447   -1.2995   -0.0229 C.ar    1  UNL1        0.0674
      5 C          -0.1404    1.4199   -0.0088 C.ar    1  UNL1        0.1877
      6 C          -1.1795   -0.6433   -0.0185 C.ar    1  UNL1        0.2152
      7 N          14.3079    2.4197    0.0170 N.4     1  UNL1        0.2353
      8 N           2.5370   -1.3643    0.0310 N.pl3   1  UNL1       -0.3425
      9 C           8.3436    1.1979    0.0182 C.ar    1  UNL1        0.1205
     10 C           6.2361   -0.6185   -0.0649 C.ar    1  UNL1       -0.0457
     11 C           2.3459    1.7598   -0.0416 C.3     1  UNL1       -0.0200
     12 C           8.5971   -0.1702   -0.0060 C.ar    1  UNL1       -0.0197
     13 C           7.0333    1.6579    0.0124 C.ar    1  UNL1       -0.0197
     14 C           5.9842    0.7489   -0.0284 C.ar    1  UNL1       -0.0551
     15 C           7.5463   -1.0806   -0.0488 C.ar    1  UNL1       -0.0551
     16 C           3.8566   -0.7353    0.2570 C.3     1  UNL1        0.0131
     17 C          13.1326    1.5363    0.0162 C.3     1  UNL1       -0.0288
     18 C           0.0656   -2.6907   -0.0175 C.ar    1  UNL1       -0.0465
     19 C          11.8316    2.3650    0.0228 C.3     1  UNL1        0.0217
     20 O           9.4027    2.1103    0.0409 O.3     1  UNL1       -0.4918
     21 C          -0.3393    2.9232   -0.0004 C.3     1  UNL1        0.0328
     22 C          14.2869    3.2636   -1.1941 C.3     1  UNL1       -0.0319
     23 C          14.2863    3.2593    1.2312 C.3     1  UNL1       -0.0319
     24 C          -2.3666   -1.3644   -0.0116 C.ar    1  UNL1        0.0103
     25 C           5.0694   -1.5714   -0.1444 C.3     1  UNL1       -0.0121
     26 C          10.6395    1.3934    0.0295 C.3     1  UNL1        0.0944
     27 C           2.0460    3.1635    0.4508 C.3     1  UNL1       -0.0483
     28 C          -1.1203   -3.4155   -0.0077 C.ar    1  UNL1       -0.0607
     29 C          15.5350    4.1592    1.2674 C.3     1  UNL1       -0.0123
     30 C          15.5360    4.1632   -1.2263 C.3     1  UNL1       -0.0123
     31 C           0.9177    3.6868   -0.3965 C.3     1  UNL1       -0.0432
     32 C          -2.3403   -2.7524   -0.0047 C.ar    1  UNL1       -0.0555
     33 C          15.5428    5.0554    0.0220 C.3     1  UNL1       -0.0434
     34 H          -2.1160    1.1206    0.0037 H       1  UNL1        0.4531
     35 H          15.1626    1.8630    0.0155 H       1  UNL1        0.2033
     36 H           2.4977   -2.3391   -0.1011 H       1  UNL1        0.1461
     37 H           2.6985    1.8216   -1.0499 H       1  UNL1        0.0316
     38 H           3.0790    1.3427    0.6168 H       1  UNL1        0.0316
     39 H           9.5709   -0.5115    0.0079 H       1  UNL1        0.0654
     40 H           6.8399    2.6713    0.0383 H       1  UNL1        0.0654
     41 H           5.0104    1.0905   -0.0317 H       1  UNL1        0.0621
     42 H           7.7389   -2.0943   -0.0685 H       1  UNL1        0.0621
     43 H           3.9407   -0.5151    1.3007 H       1  UNL1        0.0464
     44 H           3.8781    0.1289   -0.3736 H       1  UNL1        0.0464
     45 H          13.1586    0.9154    0.8872 H       1  UNL1        0.0815
     46 H          13.1539    0.9340   -0.8680 H       1  UNL1        0.0815
     47 H           0.9695   -3.1887   -0.0208 H       1  UNL1        0.0626
     48 H          11.7909    2.9814   -0.8509 H       1  UNL1        0.0350
     49 H          11.7995    2.9935    0.8882 H       1  UNL1        0.0350
     50 H          -0.6261    3.2247    0.9854 H       1  UNL1        0.0372
     51 H          -1.0961    3.1522   -0.7213 H       1  UNL1        0.0372
     52 H          13.4090    3.8753   -1.1854 H       1  UNL1        0.0814
     53 H          14.2815    2.6364   -2.0610 H       1  UNL1        0.0814
     54 H          14.2765    2.6308    2.0971 H       1  UNL1        0.0814
     55 H          13.4097    3.8728    1.2201 H       1  UNL1        0.0814
     56 H          -3.2708   -0.8669   -0.0116 H       1  UNL1        0.0683
     57 H           5.2039   -2.3896    0.5319 H       1  UNL1        0.0328
     58 H           4.9615   -1.9981   -1.1197 H       1  UNL1        0.0328
     59 H          10.6952    0.7753    0.9012 H       1  UNL1        0.0698
     60 H          10.6806    0.7928   -0.8551 H       1  UNL1        0.0698
     61 H           2.9095    3.7855    0.3401 H       1  UNL1        0.0269
     62 H           1.7794    3.1593    1.4870 H       1  UNL1        0.0269
     63 H          -1.0941   -4.4472   -0.0026 H       1  UNL1        0.0618
     64 H          16.4152    3.5508    1.2768 H       1  UNL1        0.0317
     65 H          15.5173    4.7659    2.1486 H       1  UNL1        0.0317
     66 H          15.5148    4.7748   -2.1040 H       1  UNL1        0.0317
     67 H          16.4174    3.5567   -1.2414 H       1  UNL1        0.0317
     68 H           1.1326    3.5258   -1.4322 H       1  UNL1        0.0270
     69 H           0.7859    4.7377   -0.2441 H       1  UNL1        0.0270
     70 H          -3.2223   -3.2882    0.0026 H       1  UNL1        0.0620
     71 H          16.4215    5.6660    0.0233 H       1  UNL1        0.0269
     72 H          14.6798    5.6879    0.0227 H       1  UNL1        0.0269
@<TRIPOS>UNITY_ATOM_ATTR
2 1
charge 1
7 1
charge 1
@<TRIPOS>BOND
     1     2     6   ar
     2     3     1   ar
     3     4     1   ar
     4     5     3   ar
     5     6     4   ar
     6     7    17    1
     7     8     1    1
     8     9    12   ar
     9    10    25    1
    10    11     3    1
    11    12    15   ar
    12    13    14   ar
    13    14    10   ar
    14    15    10   ar
    15    16     8    1
    16    17    19    1
    17    18     4   ar
    18    19    26    1
    19    20     9    1
    20    21     5    1
    21    22     7    1
    22    23     7    1
    23    24     6   ar
    24    25    16    1
    25    26    20    1
    26    27    11    1
    27    28    18   ar
    28    29    23    1
    29    30    22    1
    30    31    27    1
    31    32    28   ar
    32    33    29    1
    33     5     2   ar
    34    32    24   ar
    35    21    31    1
    36    13     9   ar
    37    33    30    1
    38     2    34    1
    39     7    35    1
    40     8    36    1
    41    11    37    1
    42    11    38    1
    43    12    39    1
    44    13    40    1
    45    14    41    1
    46    15    42    1
    47    16    43    1
    48    16    44    1
    49    17    45    1
    50    17    46    1
    51    18    47    1
    52    19    48    1
    53    19    49    1
    54    21    50    1
    55    21    51    1
    56    22    52    1
    57    22    53    1
    58    23    54    1
    59    23    55    1
    60    24    56    1
    61    25    57    1
    62    25    58    1
    63    26    59    1
    64    26    60    1
    65    27    61    1
    66    27    62    1
    67    28    63    1
    68    29    64    1
    69    29    65    1
    70    30    66    1
    71    30    67    1
    72    31    68    1
    73    31    69    1
    74    32    70    1
    75    33    71    1
    76    33    72    1
@<TRIPOS>MOLECULE
BDB50271324
 80 85 0 0 0
SMALL
GASTEIGER

@<TRIPOS>ATOM
      1 C           2.1476   -3.0336   -0.0039 C.ar    1  UNL1       -0.0607
      2 C           0.8937   -3.6219    0.0041 C.ar    1  UNL1       -0.0555
      3 C          -0.2332   -2.8106    0.0076 C.ar    1  UNL1        0.0103
      4 C           2.2537   -1.6517   -0.0075 C.ar    1  UNL1       -0.0465
      5 C           1.1351   -0.8162   -0.0035 C.ar    1  UNL1        0.0674
      6 C          -0.1143   -1.4281    0.0042 C.ar    1  UNL1        0.2152
      7 N          -1.2260   -0.7048    0.0055 N.ar    1  UNL1       -0.2077
      8 C           1.2191    0.5844   -0.0053 C.ar    1  UNL1        0.0498
      9 C           0.0188    1.3023   -0.0031 C.ar    1  UNL1        0.0408
     10 C          -1.1959    0.6159    0.0029 C.ar    1  UNL1        0.1877
     11 C          -2.5223    1.3381   -0.0065 C.3     1  UNL1        0.0328
     12 C          -2.3785    2.7926    0.4288 C.3     1  UNL1       -0.0432
     13 C          -1.2938    3.4187   -0.4251 C.3     1  UNL1       -0.0483
     14 C           0.0463    2.8189    0.0069 C.3     1  UNL1       -0.0200
     15 N           2.5256    1.3595   -0.0067 N.pl3   1  UNL1       -0.3428
     16 C           3.8304    0.6889   -0.0015 C.3     1  UNL1        0.0093
     17 C           5.0407    1.5952   -0.0133 C.3     1  UNL1       -0.0327
     18 C           6.2082    0.6021   -0.0067 C.3     1  UNL1       -0.0112
     19 C           7.5502    1.2979   -0.0192 C.3     1  UNL1       -0.0336
     20 N           8.5799    0.2572   -0.0133 N.4     1  UNL1        0.2270
     21 C           9.8696    0.9023   -0.0292 C.3     1  UNL1       -0.0329
     22 C          11.0070   -0.1224   -0.0131 C.3     1  UNL1       -0.0033
     23 C          12.2598    0.7272   -0.0627 C.3     1  UNL1        0.0031
     24 S          13.8092   -0.2001    0.0146 S.3     1  UNL1       -0.1240
     25 C          17.7456   -1.9420   -0.0330 C.ar    1  UNL1       -0.0610
     26 C          18.9456   -1.2413   -0.0348 C.ar    1  UNL1       -0.0597
     27 C          18.9367    0.1477   -0.0313 C.ar    1  UNL1       -0.0357
     28 C          16.5384   -1.2533   -0.0253 C.ar    1  UNL1       -0.0515
     29 C          16.5310    0.1364   -0.0215 C.ar    1  UNL1        0.0141
     30 C          17.7294    0.8349   -0.0246 C.ar    1  UNL1        0.0723
     31 N          17.7323    2.1588   -0.0252 N.ar    1  UNL1       -0.2513
     32 C          15.3241    0.8220   -0.0074 C.ar    1  UNL1        0.0219
     33 C          15.3654    2.2241   -0.0021 C.ar    1  UNL1       -0.0121
     34 C          16.6080    2.8623   -0.0127 C.ar    1  UNL1        0.0462
     35 C          16.7338    4.3716   -0.0357 C.3     1  UNL1       -0.0101
     36 C          15.4399    5.0679    0.3768 C.3     1  UNL1       -0.0473
     37 C          14.3281    4.4845   -0.4582 C.3     1  UNL1       -0.0486
     38 C          14.1083    3.0624    0.0310 C.3     1  UNL1       -0.0249
     39 H           2.9968   -3.6200   -0.0072 H       1  UNL1        0.0618
     40 H           0.7982   -4.6495    0.0074 H       1  UNL1        0.0620
     41 H          -1.1710   -3.2413    0.0128 H       1  UNL1        0.0683
     42 H           3.1933   -1.2249   -0.0133 H       1  UNL1        0.0626
     43 H          -2.0967   -1.1643    0.0085 H       1  UNL1        0.4531
     44 H          -3.1922    0.8407    0.6634 H       1  UNL1        0.0372
     45 H          -2.9002    1.3264   -1.0075 H       1  UNL1        0.0372
     46 H          -2.1029    2.8393    1.4616 H       1  UNL1        0.0270
     47 H          -3.3037    3.3159    0.3061 H       1  UNL1        0.0270
     48 H          -1.2821    4.4786   -0.2792 H       1  UNL1        0.0269
     49 H          -1.4742    3.2228   -1.4614 H       1  UNL1        0.0269
     50 H           0.8081    3.1552   -0.6650 H       1  UNL1        0.0316
     51 H           0.2449    3.1396    1.0082 H       1  UNL1        0.0316
     52 H           2.4957    2.3435   -0.0112 H       1  UNL1        0.1461
     53 H           3.8808    0.0638   -0.8685 H       1  UNL1        0.0461
     54 H           3.8776    0.1561    0.9252 H       1  UNL1        0.0461
     55 H           5.0577    2.2042   -0.8929 H       1  UNL1        0.0282
     56 H           5.0639    2.2819    0.8069 H       1  UNL1        0.0282
     57 H           6.1352   -0.0212   -0.8733 H       1  UNL1        0.0317
     58 H           6.1449    0.0269    0.8933 H       1  UNL1        0.0317
     59 H           7.6500    1.9167    0.8480 H       1  UNL1        0.0814
     60 H           7.6460    1.9209   -0.8838 H       1  UNL1        0.0814
     61 H           8.4788   -0.3338   -0.8385 H       1  UNL1        0.2013
     62 H           8.4872   -0.3266    0.8179 H       1  UNL1        0.2013
     63 H           9.9551    1.5309    0.8325 H       1  UNL1        0.0814
     64 H           9.9473    1.4776   -0.9281 H       1  UNL1        0.0814
     65 H          10.9504   -0.7681   -0.8645 H       1  UNL1        0.0325
     66 H          10.9750   -0.7626    0.8437 H       1  UNL1        0.0325
     67 H          12.2356    1.4043    0.7655 H       1  UNL1        0.0382
     68 H          12.2514    1.2204   -1.0122 H       1  UNL1        0.0382
     69 H          17.7508   -2.9740   -0.0374 H       1  UNL1        0.0618
     70 H          19.8422   -1.7522   -0.0387 H       1  UNL1        0.0618
     71 H          19.8272    0.6693   -0.0337 H       1  UNL1        0.0639
     72 H          15.6474   -1.7740   -0.0224 H       1  UNL1        0.0624
     73 H          16.9893    4.6803   -1.0278 H       1  UNL1        0.0328
     74 H          17.4919    4.6473    0.6673 H       1  UNL1        0.0328
     75 H          15.5178    6.1200    0.1984 H       1  UNL1        0.0269
     76 H          15.2471    4.9205    1.4189 H       1  UNL1        0.0269
     77 H          14.6075    4.4793   -1.4911 H       1  UNL1        0.0269
     78 H          13.4338    5.0644   -0.3643 H       1  UNL1        0.0269
     79 H          13.7504    3.1002    1.0387 H       1  UNL1        0.0314
     80 H          13.4010    2.6037   -0.6279 H       1  UNL1        0.0314
@<TRIPOS>UNITY_ATOM_ATTR
7 1
charge 1
20 1
charge 1
@<TRIPOS>BOND
     1    17    18    1
     2     8     5   ar
     3    18    19    1
     4     9    10   ar
     5    19    20    1
     6     5     4   ar
     7    20    21    1
     8     4     1   ar
     9    21    22    1
    10    22    23    1
    11     2     3   ar
    12    23    24    1
    13     5     6   ar
    14     3     6   ar
    15    25    26   ar
    16     9    14    1
    17    26    27   ar
    18    27    30   ar
    19    10    11    1
    20    29    28   ar
    21    28    25   ar
    22    11    12    1
    23    12    13    1
    24    29    30   ar
    25    13    14    1
    26    30    31   ar
    27    31    34   ar
    28     6     7   ar
    29    33    32   ar
    30    32    29   ar
    31    33    34   ar
    32     8    15    1
    33     7    10   ar
    34    15    16    1
    35     1     2   ar
    36    16    17    1
    37     9     8   ar
    38    33    38    1
    39    34    35    1
    40    35    36    1
    41    36    37    1
    42    37    38    1
    43    32    24    1
    44     1    39    1
    45     2    40    1
    46     3    41    1
    47     4    42    1
    48     7    43    1
    49    11    44    1
    50    11    45    1
    51    12    46    1
    52    12    47    1
    53    13    48    1
    54    13    49    1
    55    14    50    1
    56    14    51    1
    57    15    52    1
    58    16    53    1
    59    16    54    1
    60    17    55    1
    61    17    56    1
    62    18    57    1
    63    18    58    1
    64    19    59    1
    65    19    60    1
    66    20    61    1
    67    20    62    1
    68    21    63    1
    69    21    64    1
    70    22    65    1
    71    22    66    1
    72    23    67    1
    73    23    68    1
    74    25    69    1
    75    26    70    1
    76    27    71    1
    77    28    72    1
    78    35    73    1
    79    35    74    1
    80    36    75    1
    81    36    76    1
    82    37    77    1
    83    37    78    1
    84    38    79    1
    85    38    80    1
@<TRIPOS>MOLECULE
BDB50055185
 28 28 0 0 0
SMALL
GASTEIGER

@<TRIPOS>ATOM
      1 C           1.2133   -0.6901   -0.0001 C.ar    1  UNL1        0.1518
      2 N           2.4566   -1.4105   -0.0002 N.pl3   1  UNL1       -0.3828
      3 C           1.2148    0.6997    0.0000 C.ar    1  UNL1        0.0453
      4 C           0.0090   -1.3838   -0.0003 C.ar    1  UNL1        0.0149
      5 C          -1.1940   -0.6881   -0.0003 C.ar    1  UNL1       -0.0494
      6 C           0.0116    1.3955    0.0000 C.ar    1  UNL1        0.1229
      7 C          -1.1925    0.7017   -0.0001 C.ar    1  UNL1       -0.0195
      8 O           0.0123    2.7841    0.0001 O.3     1  UNL1       -0.5066
      9 C           3.6805   -0.5957   -0.0479 C.3     1  UNL1        0.0812
     10 C           2.3768   -2.5047   -0.9817 C.3     1  UNL1        0.0812
     11 C           2.4064   -2.3300    1.1468 C.3     1  UNL1        0.0812
     12 C           0.0078   -2.8818   -0.0004 C.3     1  UNL1       -0.0337
     13 H           2.1090    1.2149    0.0001 H       1  UNL1        0.0718
     14 H          -2.0882   -1.2033   -0.0004 H       1  UNL1        0.0623
     15 H          -2.0857    1.2186   -0.0000 H       1  UNL1        0.0654
     16 H           0.8240    3.2522    0.0002 H       1  UNL1        0.2921
     17 H           3.6486    0.0461   -0.9035 H       1  UNL1        0.0931
     18 H           4.5339   -1.2376   -0.1152 H       1  UNL1        0.0931
     19 H           3.7492   -0.0029    0.8403 H       1  UNL1        0.0931
     20 H           2.3949   -2.0982   -1.9713 H       1  UNL1        0.0931
     21 H           1.4670   -3.0487   -0.8362 H       1  UNL1        0.0931
     22 H           3.2105   -3.1625   -0.8511 H       1  UNL1        0.0931
     23 H           2.4508   -1.7683    2.0564 H       1  UNL1        0.0931
     24 H           3.2377   -3.0022    1.1017 H       1  UNL1        0.0931
     25 H           1.4942   -2.8884    1.1166 H       1  UNL1        0.0931
     26 H           1.0163   -3.2393   -0.0004 H       1  UNL1        0.0280
     27 H          -0.4969   -3.2380   -0.8741 H       1  UNL1        0.0280
     28 H          -0.4969   -3.2381    0.8732 H       1  UNL1        0.0280
@<TRIPOS>UNITY_ATOM_ATTR
2 1
charge 1
@<TRIPOS>BOND
     1     2     1    1
     2     3     1   ar
     3     4     1   ar
     4     5     4   ar
     5     6     3   ar
     6     7     5   ar
     7     8     6    1
     8     9     2    1
     9    10     2    1
    10    11     2    1
    11    12     4    1
    12     7     6   ar
    13     3    13    1
    14     5    14    1
    15     7    15    1
    16     8    16    1
    17     9    17    1
    18     9    18    1
    19     9    19    1
    20    10    20    1
    21    10    21    1
    22    10    22    1
    23    11    23    1
    24    11    24    1
    25    11    25    1
    26    12    26    1
    27    12    27    1
    28    12    28    1
@<TRIPOS>MOLECULE
BDB50166995
 73 77 0 0 0
SMALL
GASTEIGER

@<TRIPOS>ATOM
      1 N          17.5786   -2.1327    0.0147 N.ar    1  UNL1       -0.2350
      2 C          16.4951   -2.8899    0.0127 C.ar    1  UNL1        0.1335
      3 C          15.0665   -0.9369    0.0139 C.ar    1  UNL1        0.0516
      4 C           1.2409   -0.5854   -0.0141 C.ar    1  UNL1        0.0498
      5 N          -1.2237    0.6726   -0.0048 N.ar    1  UNL1       -0.2077
      6 C           1.1425    0.8214   -0.0131 C.ar    1  UNL1        0.0408
      7 C           0.0497   -1.3098   -0.0173 C.ar    1  UNL1        0.0674
      8 C          15.2233   -2.3338    0.0122 C.ar    1  UNL1       -0.0009
      9 C          -0.1246    1.4107   -0.0095 C.ar    1  UNL1        0.1877
     10 C          -1.1715   -0.6485   -0.0105 C.ar    1  UNL1        0.2152
     11 C          13.6874   -0.1790    0.0144 C.2     1  UNL1        0.2451
     12 C          16.2462   -0.1821    0.0160 C.ar    1  UNL1        0.0128
     13 C          17.4874   -0.8134    0.0163 C.ar    1  UNL1        0.0734
     14 O          13.6730    1.0565    0.0176 O.2     1  UNL1       -0.2702
     15 N           2.5409   -1.3835   -0.0002 N.pl3   1  UNL1       -0.3428
     16 CL         16.6607   -4.6026    0.0108 Cl      1  UNL1       -0.0617
     17 N          12.4102   -0.7956    0.0126 N.am    1  UNL1       -0.3113
     18 C           2.3622    1.7448   -0.0368 C.3     1  UNL1       -0.0200
     19 C           0.0661   -2.7007   -0.0135 C.ar    1  UNL1       -0.0465
     20 C          14.1058   -3.3236    0.0102 C.3     1  UNL1       -0.0361
     21 C          -0.3179    2.9146    0.0016 C.3     1  UNL1        0.0328
     22 C          16.2113    1.2089    0.0180 C.ar    1  UNL1       -0.0518
     23 C          -2.3615   -1.3655   -0.0027 C.ar    1  UNL1        0.0103
     24 C          18.6607   -0.0686    0.0186 C.ar    1  UNL1       -0.0357
     25 C           3.8676   -0.7546    0.1413 C.3     1  UNL1        0.0091
     26 C          11.2267   -0.0087    0.0245 C.3     1  UNL1        0.0119
     27 C           5.0736   -1.6543   -0.0760 C.3     1  UNL1       -0.0375
     28 C          10.0666   -1.0165   -0.0155 C.3     1  UNL1       -0.0374
     29 C           7.6090   -1.3879   -0.0511 C.3     1  UNL1       -0.0530
     30 C           6.2641   -0.6812    0.0391 C.3     1  UNL1       -0.0516
     31 C           8.7142   -0.3146    0.0236 C.3     1  UNL1       -0.0516
     32 C           2.0650    3.1487    0.4553 C.3     1  UNL1       -0.0483
     33 C          -1.1226   -3.4212   -0.0035 C.ar    1  UNL1       -0.0607
     34 C           0.9413    3.6738   -0.3953 C.3     1  UNL1       -0.0432
     35 C          17.3812    1.9578    0.0203 C.ar    1  UNL1       -0.0611
     36 C          -2.3401   -2.7534    0.0016 C.ar    1  UNL1       -0.0555
     37 C          18.6123    1.3181    0.0206 C.ar    1  UNL1       -0.0597
     38 H          -2.1014    1.1184    0.0031 H       1  UNL1        0.4531
     39 H           2.4922   -2.3627   -0.0897 H       1  UNL1        0.1461
     40 H          12.3428   -1.7777    0.0030 H       1  UNL1        0.1490
     41 H           2.7210    1.8070   -1.0429 H       1  UNL1        0.0316
     42 H           3.0891    1.3249    0.6267 H       1  UNL1        0.0316
     43 H           0.9682   -3.2019   -0.0181 H       1  UNL1        0.0626
     44 H          14.5077   -4.3153    0.0092 H       1  UNL1        0.0279
     45 H          13.5049   -3.1814   -0.8637 H       1  UNL1        0.0279
     46 H          13.5038   -3.1836    0.8836 H       1  UNL1        0.0279
     47 H          -0.6020    3.2156    0.9883 H       1  UNL1        0.0372
     48 H          -1.0751    3.1477   -0.7176 H       1  UNL1        0.0372
     49 H          15.2998    1.6929    0.0178 H       1  UNL1        0.0624
     50 H          -3.2639   -0.8648   -0.0001 H       1  UNL1        0.0683
     51 H          19.5736   -0.5499    0.0188 H       1  UNL1        0.0639
     52 H           3.9341   -0.3562    1.1321 H       1  UNL1        0.0461
     53 H           3.9175   -0.0226   -0.6375 H       1  UNL1        0.0461
     54 H          11.1950    0.6329   -0.8312 H       1  UNL1        0.0462
     55 H          11.1766    0.6220    0.8874 H       1  UNL1        0.0462
     56 H           5.0428   -2.1102   -1.0435 H       1  UNL1        0.0280
     57 H           5.1244   -2.4640    0.6217 H       1  UNL1        0.0280
     58 H          10.1440   -1.6692    0.8289 H       1  UNL1        0.0280
     59 H          10.1322   -1.5673   -0.9305 H       1  UNL1        0.0280
     60 H           7.7139   -2.0751    0.7623 H       1  UNL1        0.0265
     61 H           7.6819   -1.9350   -0.9678 H       1  UNL1        0.0265
     62 H           6.2046   -0.1769    0.9809 H       1  UNL1        0.0266
     63 H           6.2027    0.0041   -0.7804 H       1  UNL1        0.0266
     64 H           8.6200    0.2389    0.9345 H       1  UNL1        0.0266
     65 H           8.6265    0.3627   -0.8001 H       1  UNL1        0.0266
     66 H           2.9304    3.7686    0.3473 H       1  UNL1        0.0269
     67 H           1.7958    3.1455    1.4909 H       1  UNL1        0.0269
     68 H          -1.1003   -4.4530    0.0001 H       1  UNL1        0.0618
     69 H           1.1574    3.5093   -1.4303 H       1  UNL1        0.0270
     70 H           0.8128    4.7257   -0.2471 H       1  UNL1        0.0270
     71 H          17.3347    2.9887    0.0218 H       1  UNL1        0.0618
     72 H          -3.2240   -3.2860    0.0085 H       1  UNL1        0.0620
     73 H          19.4849    1.8691    0.0223 H       1  UNL1        0.0618
@<TRIPOS>UNITY_ATOM_ATTR
5 1
charge 1
@<TRIPOS>BOND
     1     2     1   ar
     2     3    12   ar
     3     4    15    1
     4     5    10   ar
     5     6     4   ar
     6     7     4   ar
     7     8     2   ar
     8     9     6   ar
     9    10     7   ar
    10    11     3    1
    11    12    13   ar
    12    13     1   ar
    13    14    11    2
    14    15    25    1
    15    16     2    1
    16    17    11   am
    17    18     6    1
    18    19     7   ar
    19    20     8    1
    20    21     9    1
    21    22    12   ar
    22    23    10   ar
    23    24    13   ar
    24    25    27    1
    25    26    17    1
    26    27    30    1
    27    28    26    1
    28    29    31    1
    29    30    29    1
    30    31    28    1
    31    32    18    1
    32    33    19   ar
    33    34    32    1
    34    35    37   ar
    35    36    33   ar
    36    37    24   ar
    37     3     8   ar
    38    35    22   ar
    39     9     5   ar
    40    23    36   ar
    41    34    21    1
    42     5    38    1
    43    15    39    1
    44    17    40    1
    45    18    41    1
    46    18    42    1
    47    19    43    1
    48    20    44    1
    49    20    45    1
    50    20    46    1
    51    21    47    1
    52    21    48    1
    53    22    49    1
    54    23    50    1
    55    24    51    1
    56    25    52    1
    57    25    53    1
    58    26    54    1
    59    26    55    1
    60    27    56    1
    61    27    57    1
    62    28    58    1
    63    28    59    1
    64    29    60    1
    65    29    61    1
    66    30    62    1
    67    30    63    1
    68    31    64    1
    69    31    65    1
    70    32    66    1
    71    32    67    1
    72    33    68    1
    73    34    69    1
    74    34    70    1
    75    35    71    1
    76    36    72    1
    77    37    73    1
@<TRIPOS>MOLECULE
BDB50055204
 28 28 0 0 0
SMALL
GASTEIGER

@<TRIPOS>ATOM
      1 C           1.2101   -0.7082   -0.0002 C.ar    1  UNL1        0.0453
      2 C           1.2106    0.6817   -0.0001 C.ar    1  UNL1        0.1489
      3 N           2.4549    1.4002    0.0001 N.pl3   1  UNL1       -0.3830
      4 C           0.0059   -1.4022   -0.0002 C.ar    1  UNL1        0.1258
      5 C          -1.1971   -0.7063   -0.0002 C.ar    1  UNL1       -0.0086
      6 C           0.0075    1.3773    0.0000 C.ar    1  UNL1        0.0041
      7 C          -1.1965    0.6834   -0.0001 C.ar    1  UNL1       -0.0494
      8 O           0.0043   -2.7907   -0.0003 O.3     1  UNL1       -0.5063
      9 C           3.6777    0.5836    0.0479 C.3     1  UNL1        0.0812
     10 C           2.3768    2.4946    0.9816 C.3     1  UNL1        0.0812
     11 C           2.4062    2.3198   -1.1469 C.3     1  UNL1        0.0812
     12 C          -2.4949   -1.4544   -0.0002 C.3     1  UNL1       -0.0363
     13 H           2.1035   -1.2247   -0.0003 H       1  UNL1        0.0718
     14 H           0.0082    2.4093    0.0001 H       1  UNL1        0.0681
     15 H          -2.0899    1.1999   -0.0001 H       1  UNL1        0.0623
     16 H           0.8152   -3.2601   -0.0003 H       1  UNL1        0.2921
     17 H           3.6448   -0.0582    0.9034 H       1  UNL1        0.0931
     18 H           4.5320    1.2243    0.1153 H       1  UNL1        0.0931
     19 H           3.7456   -0.0092   -0.8403 H       1  UNL1        0.0931
     20 H           2.3942    2.0881    1.9712 H       1  UNL1        0.0931
     21 H           1.4679    3.0401    0.8360 H       1  UNL1        0.0931
     22 H           3.2116    3.1511    0.8510 H       1  UNL1        0.0931
     23 H           2.4498    1.7580   -2.0565 H       1  UNL1        0.0931
     24 H           3.2386    2.9907   -1.1018 H       1  UNL1        0.0931
     25 H           1.4948    2.8796   -1.1168 H       1  UNL1        0.0931
     26 H          -2.3001   -2.5065   -0.0003 H       1  UNL1        0.0279
     27 H          -3.0558   -1.1955   -0.8738 H       1  UNL1        0.0279
     28 H          -3.0558   -1.1956    0.8735 H       1  UNL1        0.0279
@<TRIPOS>UNITY_ATOM_ATTR
3 1
charge 1
@<TRIPOS>BOND
     1     2     1   ar
     2     3     2    1
     3     4     1   ar
     4     5     4   ar
     5     6     2   ar
     6     7     5   ar
     7     8     4    1
     8     9     3    1
     9    10     3    1
    10    11     3    1
    11    12     5    1
    12     7     6   ar
    13     1    13    1
    14     6    14    1
    15     7    15    1
    16     8    16    1
    17     9    17    1
    18     9    18    1
    19     9    19    1
    20    10    20    1
    21    10    21    1
    22    10    22    1
    23    11    23    1
    24    11    24    1
    25    11    25    1
    26    12    26    1
    27    12    27    1
    28    12    28    1
@<TRIPOS>MOLECULE
BDB50055180
 31 31 0 0 0
SMALL
GASTEIGER

@<TRIPOS>ATOM
      1 C           1.2133   -0.6901   -0.0001 C.ar    1  UNL1        0.1518
      2 N           2.4566   -1.4105   -0.0002 N.pl3   1  UNL1       -0.3828
      3 C           1.2148    0.6997    0.0000 C.ar    1  UNL1        0.0455
      4 C           0.0090   -1.3838   -0.0003 C.ar    1  UNL1        0.0149
      5 C          -1.1940   -0.6881   -0.0003 C.ar    1  UNL1       -0.0494
      6 C           0.0116    1.3955    0.0000 C.ar    1  UNL1        0.1261
      7 C          -1.1925    0.7017   -0.0001 C.ar    1  UNL1       -0.0193
      8 C           3.6805   -0.5957   -0.0479 C.3     1  UNL1        0.0812
      9 C           2.3768   -2.5047   -0.9817 C.3     1  UNL1        0.0812
     10 C           2.4064   -2.3300    1.1468 C.3     1  UNL1        0.0812
     11 O           0.0128    2.7957    0.0001 O.3     1  UNL1       -0.4949
     12 C           0.0078   -2.8818   -0.0004 C.3     1  UNL1       -0.0337
     13 C           1.3521    3.3106    0.0002 C.3     1  UNL1        0.0788
     14 H           2.1090    1.2149    0.0001 H       1  UNL1        0.0718
     15 H          -2.0882   -1.2033   -0.0004 H       1  UNL1        0.0623
     16 H          -2.0857    1.2186   -0.0000 H       1  UNL1        0.0654
     17 H           3.6486    0.0461   -0.9035 H       1  UNL1        0.0931
     18 H           4.5339   -1.2376   -0.1152 H       1  UNL1        0.0931
     19 H           3.7492   -0.0029    0.8403 H       1  UNL1        0.0931
     20 H           2.3949   -2.0982   -1.9713 H       1  UNL1        0.0931
     21 H           1.4670   -3.0487   -0.8362 H       1  UNL1        0.0931
     22 H           3.2105   -3.1625   -0.8511 H       1  UNL1        0.0931
     23 H           2.4508   -1.7683    2.0564 H       1  UNL1        0.0931
     24 H           3.2377   -3.0022    1.1017 H       1  UNL1        0.0931
     25 H           1.4942   -2.8884    1.1166 H       1  UNL1        0.0931
     26 H           1.0163   -3.2393   -0.0004 H       1  UNL1        0.0280
     27 H          -0.4969   -3.2380   -0.8741 H       1  UNL1        0.0280
     28 H          -0.4969   -3.2381    0.8732 H       1  UNL1        0.0280
     29 H           1.3230    4.3802    0.0003 H       1  UNL1        0.0660
     30 H           1.8661    2.9678   -0.8735 H       1  UNL1        0.0660
     31 H           1.8660    2.9677    0.8738 H       1  UNL1        0.0660
@<TRIPOS>UNITY_ATOM_ATTR
2 1
charge 1
@<TRIPOS>BOND
     1     2     1    1
     2     3     1   ar
     3     4     1   ar
     4     5     4   ar
     5     6     3   ar
     6     7     5   ar
     7     8     2    1
     8     9     2    1
     9    10     2    1
    10    11     6    1
    11    12     4    1
    12    13    11    1
    13     7     6   ar
    14     3    14    1
    15     5    15    1
    16     7    16    1
    17     8    17    1
    18     8    18    1
    19     8    19    1
    20     9    20    1
    21     9    21    1
    22     9    22    1
    23    10    23    1
    24    10    24    1
    25    10    25    1
    26    12    26    1
    27    12    27    1
    28    12    28    1
    29    13    29    1
    30    13    30    1
    31    13    31    1
@<TRIPOS>MOLECULE
BDB50004018
 53 56 0 0 0
SMALL
GASTEIGER

@<TRIPOS>ATOM
      1 N           1.2477   -0.7224   -0.0002 N.ar    1  UNL1       -0.2605
      2 C           1.2383    0.6772    0.0000 C.ar    1  UNL1        0.3298
      3 C           0.0449   -1.4256   -0.0003 C.ar    1  UNL1        0.2643
      4 C          -1.2129   -0.6942   -0.0002 C.ar    1  UNL1        0.0630
      5 N           0.0246    1.3792    0.0000 N.ar    1  UNL1       -0.3070
      6 C          -1.1952    0.6962   -0.0001 C.ar    1  UNL1        0.0556
      7 C           2.4963   -1.4313   -0.0003 C.3     1  UNL1        0.0312
      8 N           6.4673   -3.7286   -0.0020 N.4     1  UNL1        0.2385
      9 O           2.3073    1.2992    0.0001 O.2     1  UNL1       -0.2465
     10 O           0.0457   -2.6623   -0.0004 O.2     1  UNL1       -0.2668
     11 C           7.7518   -4.5088   -0.0024 C.3     1  UNL1       -0.0059
     12 C           6.4144   -2.8882    1.2112 C.3     1  UNL1       -0.0313
     13 C           6.4148   -2.8861   -1.2138 C.3     1  UNL1       -0.0313
     14 C           3.6765   -0.4372   -0.0002 C.3     1  UNL1       -0.0315
     15 C          -2.4226   -1.3756   -0.0003 C.ar    1  UNL1       -0.0474
     16 C           5.0077   -1.2136   -0.0004 C.3     1  UNL1       -0.0298
     17 C           9.0835   -3.7211   -0.0014 C.ar    1  UNL1       -0.0029
     18 C           5.0902   -2.1021   -1.2477 C.3     1  UNL1       -0.0094
     19 C           5.0904   -2.1026    1.2466 C.3     1  UNL1       -0.0094
     20 C          -2.3895    1.4045    0.0000 C.ar    1  UNL1       -0.0375
     21 C           9.1379   -2.3321   -0.0004 C.ar    1  UNL1       -0.0535
     22 C          10.2630   -4.4606   -0.0015 C.ar    1  UNL1       -0.0535
     23 C          -3.6183   -0.6660   -0.0002 C.ar    1  UNL1       -0.0609
     24 C          -3.6016    0.7237   -0.0001 C.ar    1  UNL1       -0.0598
     25 C          11.4913   -3.8116   -0.0006 C.ar    1  UNL1       -0.0613
     26 C          10.3674   -1.6826    0.0005 C.ar    1  UNL1       -0.0613
     27 C          11.5433   -2.4222    0.0004 C.ar    1  UNL1       -0.0617
     28 H           0.0315    2.3637    0.0001 H       1  UNL1        0.1704
     29 H           2.5529   -2.0464   -0.8740 H       1  UNL1        0.0494
     30 H           2.5522   -2.0380    0.8793 H       1  UNL1        0.0494
     31 H           5.6677   -4.3619   -0.0027 H       1  UNL1        0.2037
     32 H           7.7484   -5.1258   -0.8766 H       1  UNL1        0.0867
     33 H           7.7486   -5.0269    0.9338 H       1  UNL1        0.0867
     34 H           7.2346   -2.2011    1.2030 H       1  UNL1        0.0814
     35 H           6.4760   -3.5143    2.0767 H       1  UNL1        0.0814
     36 H           7.2344   -2.1983   -1.2039 H       1  UNL1        0.0814
     37 H           6.4779   -3.5102   -2.0807 H       1  UNL1        0.0814
     38 H           3.6235    0.1781    0.8736 H       1  UNL1        0.0285
     39 H           3.6235    0.1767   -0.8750 H       1  UNL1        0.0285
     40 H          -2.4343   -2.4075   -0.0004 H       1  UNL1        0.0626
     41 H           5.8163   -0.5129   -0.0003 H       1  UNL1        0.0305
     42 H           4.2677   -2.7865   -1.2564 H       1  UNL1        0.0319
     43 H           5.0499   -1.4958   -2.1284 H       1  UNL1        0.0319
     44 H           5.0577   -1.4929    2.1253 H       1  UNL1        0.0319
     45 H           4.2649   -2.7832    1.2624 H       1  UNL1        0.0319
     46 H          -2.3773    2.4364    0.0001 H       1  UNL1        0.0638
     47 H           8.2646   -1.7822   -0.0003 H       1  UNL1        0.0622
     48 H          10.2249   -5.4919   -0.0022 H       1  UNL1        0.0622
     49 H          -4.5182   -1.1712   -0.0002 H       1  UNL1        0.0618
     50 H          -4.4891    1.2503   -0.0001 H       1  UNL1        0.0618
     51 H          12.3651   -4.3607   -0.0007 H       1  UNL1        0.0618
     52 H          10.4063   -0.6513    0.0012 H       1  UNL1        0.0618
     53 H          12.4558   -1.9402    0.0011 H       1  UNL1        0.0618
@<TRIPOS>UNITY_ATOM_ATTR
8 1
charge 1
@<TRIPOS>BOND
     1     2     1   ar
     2     3     1   ar
     3     4     3   ar
     4     5     2   ar
     5     6     4   ar
     6     7     1    1
     7     8    12    1
     8     9     2    2
     9    10     3    2
    10    11     8    1
    11    12    19    1
    12    13    18    1
    13    14     7    1
    14    15     4   ar
    15    16    14    1
    16    17    11    1
    17    18    16    1
    18    19    16    1
    19    20     6   ar
    20    21    17   ar
    21    22    17   ar
    22    23    15   ar
    23    24    23   ar
    24    25    22   ar
    25    26    21   ar
    26    27    25   ar
    27     6     5   ar
    28     8    13    1
    29    20    24   ar
    30    27    26   ar
    31     5    28    1
    32     7    29    1
    33     7    30    1
    34     8    31    1
    35    11    32    1
    36    11    33    1
    37    12    34    1
    38    12    35    1
    39    13    36    1
    40    13    37    1
    41    14    38    1
    42    14    39    1
    43    15    40    1
    44    16    41    1
    45    18    42    1
    46    18    43    1
    47    19    44    1
    48    19    45    1
    49    20    46    1
    50    21    47    1
    51    22    48    1
    52    23    49    1
    53    24    50    1
    54    25    51    1
    55    26    52    1
    56    27    53    1
@<TRIPOS>MOLECULE
BDB13544
 83 86 0 0 0
SMALL
GASTEIGER

@<TRIPOS>ATOM
      1 C          20.8970    1.1867   -0.0053 C.ar    1  UNL1        0.1659
      2 C          20.7474    2.5829   -0.0067 C.ar    1  UNL1        0.2035
      3 C          19.4650    3.1231   -0.0071 C.ar    1  UNL1        0.1659
      4 C          18.3427    2.3055   -0.0061 C.ar    1  UNL1       -0.0040
      5 C          18.4913    0.9280   -0.0047 C.ar    1  UNL1        0.0438
      6 C          19.7644    0.3781   -0.0043 C.ar    1  UNL1       -0.0040
      7 O          21.8218    3.5495   -0.0079 O.3     1  UNL1       -0.4885
      8 C          23.1659    3.0591   -0.0076 C.3     1  UNL1        0.0791
      9 O          19.3135    4.5115   -0.0085 O.3     1  UNL1       -0.4913
     10 C          17.9244    4.8610   -0.0087 C.3     1  UNL1        0.0790
     11 O          22.1477    0.5438   -0.0048 O.3     1  UNL1       -0.4913
     12 C          21.9868   -0.8810   -0.0033 C.3     1  UNL1        0.0790
     13 C          17.3187    0.0526   -0.0036 C.2     1  UNL1        0.2443
     14 O          17.4717   -1.1740   -0.0021 O.2     1  UNL1       -0.2702
     15 N          16.0264    0.5892   -0.0039 N.am    1  UNL1       -0.3113
     16 C          14.9006   -0.2885   -0.0016 C.3     1  UNL1        0.0119
     17 C          13.5989    0.5289   -0.0043 C.3     1  UNL1       -0.0374
     18 C          12.4229   -0.4541    0.0010 C.3     1  UNL1       -0.0516
     19 C          11.0848    0.2945   -0.0042 C.3     1  UNL1       -0.0530
     20 C           9.9699   -0.7609    0.0030 C.3     1  UNL1       -0.0530
     21 C           8.6035   -0.0861   -0.0098 C.3     1  UNL1       -0.0526
     22 C           7.5039   -1.1659   -0.0022 C.3     1  UNL1       -0.0447
     23 C           6.1829   -0.4279   -0.0231 C.3     1  UNL1        0.0254
     24 N           3.7819   -0.6485   -0.0038 N.am    1  UNL1       -0.2365
     25 C           4.9750   -1.3177   -0.0077 C.2     1  UNL1        0.2290
     26 N           2.5311   -1.2621    0.0114 N.pl3   1  UNL1       -0.2635
     27 C           1.1959   -0.4993    0.0160 C.ar    1  UNL1        0.0584
     28 C           1.0352    0.8890    0.0216 C.ar    1  UNL1       -0.0032
     29 C          -0.2474    1.4426    0.0135 C.ar    1  UNL1        0.0470
     30 C           0.7453    3.7404    0.3899 C.3     1  UNL1       -0.0473
     31 C           1.8794    3.2353   -0.4546 C.3     1  UNL1       -0.0486
     32 C           2.2042    1.8487    0.0560 C.3     1  UNL1       -0.0242
     33 C          -0.4930    2.9387    0.0064 C.3     1  UNL1       -0.0101
     34 C          -1.2157   -0.6492    0.0009 C.ar    1  UNL1        0.0731
     35 C           0.0217   -1.2846    0.0091 C.ar    1  UNL1        0.0230
     36 C           0.0919   -2.6586    0.0025 C.ar    1  UNL1       -0.0507
     37 C          -1.0757   -3.4259   -0.0117 C.ar    1  UNL1       -0.0610
     38 C          -2.3141   -2.7986   -0.0194 C.ar    1  UNL1       -0.0597
     39 C          -2.3860   -1.4180   -0.0132 C.ar    1  UNL1       -0.0357
     40 N          -1.3203    0.6553    0.0000 N.ar    1  UNL1       -0.2512
     41 O           5.0550   -2.5513    0.0073 O.2     1  UNL1       -0.2743
     42 H          17.3991    2.7234   -0.0064 H       1  UNL1        0.0663
     43 H          19.8737   -0.6481   -0.0032 H       1  UNL1        0.0663
     44 H          23.8467    3.8846   -0.0086 H       1  UNL1        0.0660
     45 H          23.3279    2.4621   -0.8806 H       1  UNL1        0.0660
     46 H          23.3282    2.4639    0.8667 H       1  UNL1        0.0660
     47 H          17.8247    5.9263   -0.0098 H       1  UNL1        0.0660
     48 H          17.4555    4.4598    0.8654 H       1  UNL1        0.0660
     49 H          17.4553    4.4580   -0.8819 H       1  UNL1        0.0660
     50 H          22.9492   -1.3486   -0.0029 H       1  UNL1        0.0660
     51 H          21.4454   -1.1797   -0.8766 H       1  UNL1        0.0660
     52 H          21.4457   -1.1779    0.8707 H       1  UNL1        0.0660
     53 H          15.8946    1.5648   -0.0057 H       1  UNL1        0.1490
     54 H          14.9317   -0.9029    0.8739 H       1  UNL1        0.0462
     55 H          14.9319   -0.9033   -0.8768 H       1  UNL1        0.0462
     56 H          13.5564    1.1413   -0.8807 H       1  UNL1        0.0280
     57 H          13.5567    1.1639    0.8559 H       1  UNL1        0.0280
     58 H          12.4799   -1.0639    0.8784 H       1  UNL1        0.0266
     59 H          12.4794   -1.0599   -0.8792 H       1  UNL1        0.0266
     60 H          11.0085    0.9015   -0.8820 H       1  UNL1        0.0265
     61 H          11.0058    0.9342    0.8499 H       1  UNL1        0.0265
     62 H          10.0585   -1.3621    0.8837 H       1  UNL1        0.0265
     63 H          10.0642   -1.3731   -0.8695 H       1  UNL1        0.0265
     64 H           8.5093    0.5142   -0.8905 H       1  UNL1        0.0265
     65 H           8.5020    0.5358    0.8550 H       1  UNL1        0.0265
     66 H           7.5794   -1.7652    0.8810 H       1  UNL1        0.0270
     67 H           7.5965   -1.8209   -0.8432 H       1  UNL1        0.0270
     68 H           6.1473    0.1692   -0.9103 H       1  UNL1        0.0359
     69 H           6.1444    0.1544    0.8738 H       1  UNL1        0.0359
     70 H           3.8090    0.3356   -0.0123 H       1  UNL1        0.1727
     71 H           2.5002   -2.2461    0.0197 H       1  UNL1        0.1700
     72 H           0.5819    4.7807    0.2003 H       1  UNL1        0.0269
     73 H           0.9656    3.6250    1.4306 H       1  UNL1        0.0269
     74 H           2.7304    3.8760   -0.3537 H       1  UNL1        0.0269
     75 H           1.6139    3.2158   -1.4910 H       1  UNL1        0.0269
     76 H           2.9895    1.4437   -0.5475 H       1  UNL1        0.0314
     77 H           2.4858    1.9558    1.0827 H       1  UNL1        0.0314
     78 H          -1.2738    3.1606    0.7035 H       1  UNL1        0.0328
     79 H          -0.7619    3.2171   -0.9911 H       1  UNL1        0.0328
     80 H           1.0124   -3.1252    0.0081 H       1  UNL1        0.0625
     81 H          -1.0176   -4.4563   -0.0165 H       1  UNL1        0.0618
     82 H          -3.1790   -3.3615   -0.0297 H       1  UNL1        0.0618
     83 H          -3.3066   -0.9517   -0.0190 H       1  UNL1        0.0639
@<TRIPOS>BOND
     1     1     2   ar
     2     1     6   ar
     3     2     3   ar
     4     3     4   ar
     5     4     5   ar
     6     5     6   ar
     7     1    11    1
     8     2     7    1
     9     3     9    1
    10     7     8    1
    11     9    10    1
    12    11    12    1
    13     5    13    1
    14    13    15   am
    15    13    14    2
    16    15    16    1
    17    16    17    1
    18    17    18    1
    19    18    19    1
    20    19    20    1
    21    20    21    1
    22    21    22    1
    23    22    23    1
    24    23    25    1
    25    25    24   am
    26    24    26    1
    27    26    27    1
    28    28    27   ar
    29    27    35   ar
    30    29    40   ar
    31    34    40   ar
    32    32    28    1
    33    29    28   ar
    34    29    33    1
    35    30    31    1
    36    30    33    1
    37    31    32    1
    38    34    39   ar
    39    35    34   ar
    40    35    36   ar
    41    36    37   ar
    42    37    38   ar
    43    38    39   ar
    44    25    41    2
    45     4    42    1
    46     6    43    1
    47     8    44    1
    48     8    45    1
    49     8    46    1
    50    10    47    1
    51    10    48    1
    52    10    49    1
    53    12    50    1
    54    12    51    1
    55    12    52    1
    56    15    53    1
    57    16    54    1
    58    16    55    1
    59    17    56    1
    60    17    57    1
    61    18    58    1
    62    18    59    1
    63    19    60    1
    64    19    61    1
    65    20    62    1
    66    20    63    1
    67    21    64    1
    68    21    65    1
    69    22    66    1
    70    22    67    1
    71    23    68    1
    72    23    69    1
    73    24    70    1
    74    26    71    1
    75    30    72    1
    76    30    73    1
    77    31    74    1
    78    31    75    1
    79    32    76    1
    80    32    77    1
    81    33    78    1
    82    33    79    1
    83    36    80    1
    84    37    81    1
    85    38    82    1
    86    39    83    1
@<TRIPOS>MOLECULE
BDB50008579
 34 35 0 0 0
SMALL
GASTEIGER

@<TRIPOS>ATOM
      1 N           1.2325   -0.7118    0.2525 N.4     1  UNL1        0.2385
      2 C           2.4664   -1.4243   -0.2255 C.3     1  UNL1       -0.0059
      3 C           1.2530    0.6770   -0.2496 C.3     1  UNL1       -0.0313
      4 C           0.0400   -1.4228   -0.2508 C.3     1  UNL1       -0.0313
      5 C           2.6897   -1.5523   -1.7511 C.ar    1  UNL1       -0.0029
      6 C          -1.2360   -0.7256    0.2553 C.3     1  UNL1       -0.0097
      7 C           0.0110    1.4346    0.2550 C.3     1  UNL1       -0.0097
      8 C          -1.2473    0.7208   -0.2557 C.3     1  UNL1       -0.0343
      9 C           1.8014   -1.0388   -2.6889 C.ar    1  UNL1       -0.0535
     10 C           3.8382   -2.2151   -2.1751 C.ar    1  UNL1       -0.0535
     11 C          -2.5030    1.4454    0.2633 C.3     1  UNL1       -0.0621
     12 C           4.0955   -2.3629   -3.5323 C.ar    1  UNL1       -0.0613
     13 C           2.0590   -1.1867   -4.0473 C.ar    1  UNL1       -0.0613
     14 C           3.2055   -1.8485   -4.4685 C.ar    1  UNL1       -0.0617
     15 H           1.2045   -0.6963    1.2720 H       1  UNL1        0.2037
     16 H           2.4359   -2.4159    0.1753 H       1  UNL1        0.0867
     17 H           3.2754   -0.8101    0.1111 H       1  UNL1        0.0867
     18 H           1.2525    0.6676   -1.3196 H       1  UNL1        0.0814
     19 H           2.1343    1.1678    0.1072 H       1  UNL1        0.0814
     20 H           0.0551   -2.4337    0.0996 H       1  UNL1        0.0814
     21 H           0.0477   -1.4116   -1.3207 H       1  UNL1        0.0814
     22 H          -1.2468   -0.7287    1.3252 H       1  UNL1        0.0319
     23 H          -2.0999   -1.2443   -0.1047 H       1  UNL1        0.0319
     24 H           0.0287    2.4391   -0.1132 H       1  UNL1        0.0319
     25 H           0.0079    1.4543    1.3248 H       1  UNL1        0.0319
     26 H          -1.2602    0.7283   -1.3256 H       1  UNL1        0.0302
     27 H           0.9495   -0.5471   -2.3765 H       1  UNL1        0.0622
     28 H           4.4991   -2.5970   -1.4805 H       1  UNL1        0.0622
     29 H          -2.4994    1.4433    1.3333 H       1  UNL1        0.0232
     30 H          -3.3778    0.9415   -0.0914 H       1  UNL1        0.0232
     31 H          -2.5044    2.4549   -0.0913 H       1  UNL1        0.0232
     32 H           4.9471   -2.8544   -3.8456 H       1  UNL1        0.0618
     33 H           1.3986   -0.8049   -4.7424 H       1  UNL1        0.0618
     34 H           3.3967   -1.9584   -5.4767 H       1  UNL1        0.0618
@<TRIPOS>UNITY_ATOM_ATTR
1 1
charge 1
@<TRIPOS>BOND
     1     2     1    1
     2     3     1    1
     3     4     1    1
     4     5     2    1
     5     6     4    1
     6     7     3    1
     7     8     6    1
     8     9     5   ar
     9    10     5   ar
    10    11     8    1
    11    12    10   ar
    12    13     9   ar
    13    14    12   ar
    14     8     7    1
    15    14    13   ar
    16     1    15    1
    17     2    16    1
    18     2    17    1
    19     3    18    1
    20     3    19    1
    21     4    20    1
    22     4    21    1
    23     6    22    1
    24     6    23    1
    25     7    24    1
    26     7    25    1
    27     8    26    1
    28     9    27    1
    29    10    28    1
    30    11    29    1
    31    11    30    1
    32    11    31    1
    33    12    32    1
    34    13    33    1
    35    14    34    1
@<TRIPOS>MOLECULE
BDB50003996
 63 66 0 0 0
SMALL
GASTEIGER

@<TRIPOS>ATOM
      1 N          -5.6587    3.2750    9.1050 N.pl3   1  UNL1        0.0564
      2 C          -3.3219    1.9169    4.0766 C.2     1  UNL1        0.2508
      3 N          -3.6340    2.0981    2.6212 N.am    1  UNL1       -0.2674
      4 N           1.2325   -0.7118    0.2525 N.4     1  UNL1        0.2385
      5 C          -5.1149    2.9585    7.8578 C.ar    1  UNL1        0.1262
      6 C          -2.5168    1.4545    1.8185 C.3     1  UNL1        0.0203
      7 C          -4.0329    2.3286    5.3706 C.ar    1  UNL1        0.0374
      8 O          -5.1011    2.9511   10.0881 O.2     1  UNL1       -0.1261
      9 O          -6.6734    3.8651    9.1721 O.2     1  UNL1       -0.1261
     10 O          -2.2660    1.3060    4.2773 O.2     1  UNL1       -0.2696
     11 C          -4.8485    2.7982    1.9872 C.ar    1  UNL1        0.0366
     12 C          -3.9154    2.2610    7.7794 C.ar    1  UNL1       -0.0308
     13 C          -5.7742    3.3415    6.6958 C.ar    1  UNL1       -0.0308
     14 C          -5.2338    3.0269    5.4548 C.ar    1  UNL1       -0.0475
     15 C          -3.3749    1.9464    6.5383 C.ar    1  UNL1       -0.0475
     16 C           2.4664   -1.4243   -0.2255 C.3     1  UNL1       -0.0059
     17 C           0.0400   -1.4228   -0.2508 C.3     1  UNL1       -0.0313
     18 C           1.2530    0.6770   -0.2496 C.3     1  UNL1       -0.0313
     19 C          -2.5037    1.4458    0.2643 C.3     1  UNL1       -0.0335
     20 C          -1.2473    0.7208   -0.2557 C.3     1  UNL1       -0.0300
     21 C           2.6897   -1.5523   -1.7511 C.ar    1  UNL1       -0.0029
     22 C          -1.2360   -0.7256    0.2553 C.3     1  UNL1       -0.0094
     23 C           0.0110    1.4346    0.2550 C.3     1  UNL1       -0.0094
     24 C          -5.8406    3.3650    2.7872 C.ar    1  UNL1       -0.0403
     25 C          -4.9680    2.8710    0.5985 C.ar    1  UNL1       -0.0403
     26 C           1.8014   -1.0388   -2.6889 C.ar    1  UNL1       -0.0535
     27 C           3.8382   -2.2151   -2.1751 C.ar    1  UNL1       -0.0535
     28 C          -6.0632    3.5012    0.0196 C.ar    1  UNL1       -0.0600
     29 C          -6.9359    3.9952    2.2083 C.ar    1  UNL1       -0.0600
     30 C           4.0955   -2.3629   -3.5323 C.ar    1  UNL1       -0.0613
     31 C           2.0590   -1.1867   -4.0473 C.ar    1  UNL1       -0.0613
     32 C           3.2055   -1.8485   -4.4685 C.ar    1  UNL1       -0.0617
     33 C          -7.0470    4.0632    0.8246 C.ar    1  UNL1       -0.0616
     34 H           1.2045   -0.6963    1.2720 H       1  UNL1        0.2037
     35 H          -2.4857    0.4288    2.1217 H       1  UNL1        0.0469
     36 H          -1.6892    2.0951    2.0414 H       1  UNL1        0.0469
     37 H          -3.4262    1.9768    8.6425 H       1  UNL1        0.0640
     38 H          -6.6649    3.8594    6.7546 H       1  UNL1        0.0640
     39 H          -5.7245    3.3120    4.5929 H       1  UNL1        0.0626
     40 H          -2.4841    1.4285    6.4812 H       1  UNL1        0.0626
     41 H           2.4359   -2.4159    0.1753 H       1  UNL1        0.0867
     42 H           3.2754   -0.8101    0.1111 H       1  UNL1        0.0867
     43 H           0.0478   -1.4160   -1.3208 H       1  UNL1        0.0814
     44 H           0.0550   -2.4322    0.1038 H       1  UNL1        0.0814
     45 H           1.2525    0.6676   -1.3196 H       1  UNL1        0.0814
     46 H           2.1343    1.1678    0.1072 H       1  UNL1        0.0814
     47 H          -2.5034    2.4539   -0.0944 H       1  UNL1        0.0283
     48 H          -3.3733    0.9316   -0.0883 H       1  UNL1        0.0283
     49 H          -1.2603    0.7284   -1.3256 H       1  UNL1        0.0305
     50 H          -1.2468   -0.7287    1.3252 H       1  UNL1        0.0319
     51 H          -2.0999   -1.2443   -0.1047 H       1  UNL1        0.0319
     52 H           0.0287    2.4391   -0.1132 H       1  UNL1        0.0319
     53 H           0.0079    1.4543    1.3248 H       1  UNL1        0.0319
     54 H          -5.7609    3.3162    3.8150 H       1  UNL1        0.0636
     55 H          -4.2391    2.4546   -0.0018 H       1  UNL1        0.0636
     56 H           0.9495   -0.5471   -2.3765 H       1  UNL1        0.0622
     57 H           4.4991   -2.5970   -1.4805 H       1  UNL1        0.0622
     58 H          -6.1459    3.5518   -1.0078 H       1  UNL1        0.0618
     59 H          -7.6665    4.4125    2.8058 H       1  UNL1        0.0618
     60 H           4.9471   -2.8544   -3.8456 H       1  UNL1        0.0618
     61 H           1.3986   -0.8049   -4.7424 H       1  UNL1        0.0618
     62 H           3.3967   -1.9584   -5.4767 H       1  UNL1        0.0618
     63 H          -7.8602    4.5311    0.3948 H       1  UNL1        0.0618
@<TRIPOS>UNITY_ATOM_ATTR
4 1
charge 1
@<TRIPOS>BOND
     1     2     7    1
     2     3     2   am
     3     4    18    1
     4     5     1    1
     5     6     3    1
     6     7    14   ar
     7     8     1    2
     8     9     1    2
     9    10     2    2
    10    11     3    1
    11    12     5   ar
    12    13     5   ar
    13    14    13   ar
    14    15    12   ar
    15    16     4    1
    16    17    22    1
    17    18    23    1
    18    19     6    1
    19    20    19    1
    20    21    16    1
    21    22    20    1
    22    23    20    1
    23    24    11   ar
    24    25    11   ar
    25    26    21   ar
    26    27    21   ar
    27    28    25   ar
    28    29    24   ar
    29    30    27   ar
    30    31    26   ar
    31    32    30   ar
    32    33    28   ar
    33     7    15   ar
    34    33    29   ar
    35    17     4    1
    36    32    31   ar
    37     4    34    1
    38     6    35    1
    39     6    36    1
    40    12    37    1
    41    13    38    1
    42    14    39    1
    43    15    40    1
    44    16    41    1
    45    16    42    1
    46    17    43    1
    47    17    44    1
    48    18    45    1
    49    18    46    1
    50    19    47    1
    51    19    48    1
    52    20    49    1
    53    22    50    1
    54    22    51    1
    55    23    52    1
    56    23    53    1
    57    24    54    1
    58    25    55    1
    59    26    56    1
    60    27    57    1
    61    28    58    1
    62    29    59    1
    63    30    60    1
    64    31    61    1
    65    32    62    1
    66    33    63    1
@<TRIPOS>MOLECULE
BDB50039729
 55 58 0 0 0
SMALL
GASTEIGER

@<TRIPOS>ATOM
      1 C           1.1783   -0.6762   -0.0002 C.ar    1  UNL1        0.0445
      2 N           3.1967    0.1169   -0.0001 N.ar    1  UNL1       -0.0821
      3 C           1.1907    0.6854    0.0000 C.ar    1  UNL1        0.1678
      4 O           2.4209    1.0953    0.0000 O.2     1  UNL1       -0.3544
      5 C           2.5062   -1.0254   -0.0002 C.ar    1  UNL1        0.0913
      6 C           0.0174   -1.4282   -0.0003 C.ar    1  UNL1       -0.0460
      7 N           4.7964   -6.6562    0.0008 N.4     1  UNL1        0.2385
      8 C           0.0148    1.4158    0.0000 C.ar    1  UNL1       -0.0129
      9 C          -1.1779   -0.7095   -0.0003 C.ar    1  UNL1       -0.0467
     10 C          -1.1780    0.6914   -0.0001 C.ar    1  UNL1       -0.0439
     11 C           3.0695   -2.4100   -0.0003 C.3     1  UNL1       -0.0063
     12 C           5.3329   -8.0600    0.0010 C.3     1  UNL1       -0.0059
     13 C           5.2699   -5.9595   -1.2123 C.3     1  UNL1       -0.0313
     14 C           5.2713   -5.9586    1.2127 C.3     1  UNL1       -0.0313
     15 C           4.6086   -2.3446   -0.0003 C.3     1  UNL1       -0.0443
     16 C           6.8679   -8.2541    0.0001 C.ar    1  UNL1       -0.0029
     17 C           5.1852   -3.7744   -0.0003 C.3     1  UNL1       -0.0311
     18 C           4.7055   -4.5272    1.2469 C.3     1  UNL1       -0.0095
     19 C           4.7056   -4.5272   -1.2474 C.3     1  UNL1       -0.0095
     20 C          -2.4812   -1.4485   -0.0004 C.3     1  UNL1       -0.0394
     21 C          -2.4821    1.4289    0.0000 C.3     1  UNL1       -0.0393
     22 C           7.7624   -7.1901   -0.0006 C.ar    1  UNL1       -0.0535
     23 C           7.3464   -9.5614    0.0000 C.ar    1  UNL1       -0.0535
     24 C           8.7147   -9.8018   -0.0008 C.ar    1  UNL1       -0.0613
     25 C           9.1320   -7.4307   -0.0014 C.ar    1  UNL1       -0.0613
     26 C           9.6076   -8.7360   -0.0015 C.ar    1  UNL1       -0.0617
     27 H           0.0347   -2.4601   -0.0004 H       1  UNL1        0.0628
     28 H           3.7765   -6.6664    0.0014 H       1  UNL1        0.2037
     29 H           0.0200    2.4478    0.0001 H       1  UNL1        0.0658
     30 H           2.7356   -2.9297   -0.8740 H       1  UNL1        0.0330
     31 H           2.7369   -2.9278    0.8750 H       1  UNL1        0.0330
     32 H           4.9508   -8.5462   -0.8722 H       1  UNL1        0.0867
     33 H           5.0140   -8.4664    0.9380 H       1  UNL1        0.0867
     34 H           4.9396   -6.4924   -2.0793 H       1  UNL1        0.0814
     35 H           6.3390   -5.9169   -1.1997 H       1  UNL1        0.0814
     36 H           4.9427   -6.4911    2.0807 H       1  UNL1        0.0814
     37 H           6.3403   -5.9153    1.1990 H       1  UNL1        0.0814
     38 H           4.9433   -1.8253    0.8734 H       1  UNL1        0.0272
     39 H           4.9429   -1.8258   -0.8744 H       1  UNL1        0.0272
     40 H           6.2536   -3.7164   -0.0003 H       1  UNL1        0.0304
     41 H           5.0523   -4.0246    2.1255 H       1  UNL1        0.0319
     42 H           3.6361   -4.5600    1.2621 H       1  UNL1        0.0319
     43 H           3.6362   -4.5625   -1.2567 H       1  UNL1        0.0319
     44 H           5.0466   -4.0244   -2.1282 H       1  UNL1        0.0319
     45 H          -2.2939   -2.5020   -0.0006 H       1  UNL1        0.0278
     46 H          -3.0403   -1.1855   -0.8740 H       1  UNL1        0.0278
     47 H          -3.0403   -1.1858    0.8733 H       1  UNL1        0.0278
     48 H          -3.2892    0.7264   -0.0001 H       1  UNL1        0.0278
     49 H          -2.5443    2.0436   -0.8736 H       1  UNL1        0.0278
     50 H          -2.5443    2.0434    0.8737 H       1  UNL1        0.0278
     51 H           7.4096   -6.2203   -0.0005 H       1  UNL1        0.0622
     52 H           6.6840  -10.3528    0.0005 H       1  UNL1        0.0622
     53 H           9.0683  -10.7713   -0.0009 H       1  UNL1        0.0618
     54 H           9.7950   -6.6398   -0.0019 H       1  UNL1        0.0618
     55 H          10.6240   -8.9146   -0.0021 H       1  UNL1        0.0618
@<TRIPOS>UNITY_ATOM_ATTR
7 1
charge 1
@<TRIPOS>BOND
     1     2     5   ar
     2     3     1   ar
     3     4     3   ar
     4     5     1   ar
     5     6     1   ar
     6     7    13    1
     7     8     3   ar
     8     9     6   ar
     9    10     9   ar
    10    11     5    1
    11    12     7    1
    12    13    19    1
    13    14    18    1
    14    15    11    1
    15    16    12    1
    16    17    15    1
    17    18    17    1
    18    19    17    1
    19    20     9    1
    20    21    10    1
    21    22    16   ar
    22    23    16   ar
    23    24    23   ar
    24    25    22   ar
    25    26    24   ar
    26     4     2   ar
    27    10     8   ar
    28     7    14    1
    29    26    25   ar
    30     6    27    1
    31     7    28    1
    32     8    29    1
    33    11    30    1
    34    11    31    1
    35    12    32    1
    36    12    33    1
    37    13    34    1
    38    13    35    1
    39    14    36    1
    40    14    37    1
    41    15    38    1
    42    15    39    1
    43    17    40    1
    44    18    41    1
    45    18    42    1
    46    19    43    1
    47    19    44    1
    48    20    45    1
    49    20    46    1
    50    20    47    1
    51    21    48    1
    52    21    49    1
    53    21    50    1
    54    22    51    1
    55    23    52    1
    56    24    53    1
    57    25    54    1
    58    26    55    1
@<TRIPOS>MOLECULE
BDB50265255
 90 95 0 0 0
SMALL
GASTEIGER

@<TRIPOS>ATOM
      1 N          -4.8784   -2.7799    0.0290 N.am    1  UNL1       -0.3138
      2 C          -3.7809   -3.6826    0.1454 C.3     1  UNL1        0.0271
      3 N          -1.2800   -3.4640   -0.0280 N.pl3   1  UNL1       -0.3413
      4 C          -2.5873   -2.8290   -0.2237 C.3     1  UNL1        0.0247
      5 C           0.0080   -2.6596   -0.0003 C.ar    1  UNL1        0.0499
      6 N           2.4225   -1.3140    0.0086 N.ar    1  UNL1       -0.2077
      7 C           1.2962   -0.6185    0.0027 C.ar    1  UNL1        0.2152
      8 C           0.0593   -1.2553   -0.0016 C.ar    1  UNL1        0.0674
      9 C          -1.0774   -0.4479    0.0104 C.ar    1  UNL1       -0.0465
     10 C          -1.0015    0.9371    0.0115 C.ar    1  UNL1       -0.0607
     11 C           0.2392    1.5532    0.0059 C.ar    1  UNL1       -0.0555
     12 C           1.3837    0.7685    0.0048 C.ar    1  UNL1        0.0103
     13 C           1.2232   -3.3489    0.0184 C.ar    1  UNL1        0.0408
     14 C           2.4229   -2.6370    0.0201 C.ar    1  UNL1        0.1877
     15 C           3.7654   -3.3286    0.0097 C.3     1  UNL1        0.0328
     16 C           3.6556   -4.7894    0.4339 C.3     1  UNL1       -0.0432
     17 C           2.5797   -5.4341   -0.4172 C.3     1  UNL1       -0.0483
     18 C           1.2311   -4.8663    0.0294 C.3     1  UNL1       -0.0200
     19 C          -8.5937   -2.9972   -0.0317 C.3     1  UNL1        0.0071
     20 C          -9.7906   -2.0491   -0.1293 C.3     1  UNL1        0.0536
     21 C         -11.0206   -2.8971   -0.1407 C.2     1  UNL1        0.2612
     22 N          -9.8325   -1.0896    1.0025 N.4     1  UNL1        0.2274
     23 N         -12.2497   -2.3260    0.0683 N.am    1  UNL1       -0.3092
     24 O         -10.9318   -4.1074   -0.3711 O.2     1  UNL1       -0.2696
     25 C         -13.4479   -3.0914   -0.0600 C.3     1  UNL1        0.0273
     26 N         -15.9123   -2.5534   -0.0337 N.pl3   1  UNL1       -0.3413
     27 C         -14.5400   -2.0739    0.1781 C.3     1  UNL1        0.0247
     28 C         -17.0998   -1.6053   -0.0708 C.ar    1  UNL1        0.0499
     29 N         -19.3404    0.0133   -0.1190 N.ar    1  UNL1       -0.2077
     30 C         -18.1421    0.5719   -0.0543 C.ar    1  UNL1        0.2152
     31 C         -16.9887   -0.2051   -0.0271 C.ar    1  UNL1        0.0674
     32 C         -15.7671    0.4644    0.0305 C.ar    1  UNL1       -0.0465
     33 C         -15.6810    1.8480    0.0704 C.ar    1  UNL1       -0.0607
     34 C         -16.8411    2.6045    0.0486 C.ar    1  UNL1       -0.0555
     35 C         -18.0679    1.9591   -0.0159 C.ar    1  UNL1        0.0103
     36 C         -18.3857   -2.1474   -0.1466 C.ar    1  UNL1        0.0408
     37 C         -19.4938   -1.2999   -0.1676 C.ar    1  UNL1        0.1877
     38 C         -20.9071   -1.8289   -0.2251 C.3     1  UNL1        0.0328
     39 C         -20.9516   -3.2782   -0.6969 C.3     1  UNL1       -0.0432
     40 C         -19.9934   -4.0705    0.1704 C.3     1  UNL1       -0.0483
     41 C         -18.5692   -3.6527   -0.2050 C.3     1  UNL1       -0.0200
     42 C          -7.2806   -2.2344   -0.0791 C.3     1  UNL1        0.0295
     43 C          -6.1747   -3.2265    0.0092 C.2     1  UNL1        0.2133
     44 O          -6.4238   -4.4351    0.0645 O.2     1  UNL1       -0.2758
     45 H          -4.7014   -1.8138   -0.0387 H       1  UNL1        0.1487
     46 H          -3.8877   -4.5050   -0.5307 H       1  UNL1        0.0477
     47 H          -3.6988   -4.1185    1.1191 H       1  UNL1        0.0477
     48 H          -1.2360   -4.4405    0.0889 H       1  UNL1        0.1461
     49 H          -2.6758   -2.5656   -1.2570 H       1  UNL1        0.0476
     50 H          -2.6096   -1.9869    0.4360 H       1  UNL1        0.0476
     51 H           3.2822   -0.8343    0.0043 H       1  UNL1        0.4531
     52 H          -2.0070   -0.8961    0.0187 H       1  UNL1        0.0626
     53 H          -1.8634    1.5047    0.0165 H       1  UNL1        0.0618
     54 H           0.3114    2.5827    0.0026 H       1  UNL1        0.0620
     55 H           2.3114    1.2205    0.0056 H       1  UNL1        0.0683
     56 H           4.4215   -2.8206    0.6852 H       1  UNL1        0.0372
     57 H           4.1449   -3.3012   -0.9904 H       1  UNL1        0.0372
     58 H           3.3878   -4.8499    1.4681 H       1  UNL1        0.0270
     59 H           4.5913   -5.2909    0.3002 H       1  UNL1        0.0270
     60 H           2.5924   -6.4950   -0.2786 H       1  UNL1        0.0269
     61 H           2.7483   -5.2284   -1.4536 H       1  UNL1        0.0269
     62 H           0.4700   -5.2208   -0.6339 H       1  UNL1        0.0316
     63 H           1.0510   -5.1911    1.0329 H       1  UNL1        0.0316
     64 H          -8.6267   -3.6857   -0.8501 H       1  UNL1        0.0329
     65 H          -8.6493   -3.5166    0.9021 H       1  UNL1        0.0329
     66 H          -9.7153   -1.4607   -1.0198 H       1  UNL1        0.0949
     67 H          -9.9047   -1.6030    1.8809 H       1  UNL1        0.2002
     68 H         -10.6415   -0.4771    0.8992 H       1  UNL1        0.2002
     69 H          -8.9801   -0.5294    1.0051 H       1  UNL1        0.2002
     70 H         -12.3067   -1.3735    0.3106 H       1  UNL1        0.1489
     71 H         -13.4846   -3.8710    0.6720 H       1  UNL1        0.0477
     72 H         -13.5319   -3.5806   -1.0079 H       1  UNL1        0.0477
     73 H         -16.0675   -3.5180   -0.1553 H       1  UNL1        0.1461
     74 H         -14.4615   -1.7378    1.1909 H       1  UNL1        0.0476
     75 H         -14.3845   -1.3028   -0.5473 H       1  UNL1        0.0476
     76 H         -20.1382    0.5900   -0.1313 H       1  UNL1        0.4531
     77 H         -14.8962   -0.0891    0.0439 H       1  UNL1        0.0626
     78 H         -14.7595    2.3105    0.1160 H       1  UNL1        0.0618
     79 H         -16.7937    3.6349    0.0799 H       1  UNL1        0.0620
     80 H         -18.9363    2.5164   -0.0356 H       1  UNL1        0.0683
     81 H         -21.4749   -1.2266   -0.9031 H       1  UNL1        0.0372
     82 H         -21.3174   -1.7883    0.7623 H       1  UNL1        0.0372
     83 H         -20.6508   -3.3379   -1.7220 H       1  UNL1        0.0270
     84 H         -21.9440   -3.6700   -0.6163 H       1  UNL1        0.0270
     85 H         -20.1240   -5.1178   -0.0056 H       1  UNL1        0.0269
     86 H         -20.1792   -3.8772    1.2062 H       1  UNL1        0.0269
     87 H         -17.8835   -4.1112    0.4765 H       1  UNL1        0.0316
     88 H         -18.3852   -3.9699   -1.2102 H       1  UNL1        0.0316
     89 H          -7.2253   -1.5534    0.7444 H       1  UNL1        0.0360
     90 H          -7.2072   -1.6727   -0.9868 H       1  UNL1        0.0360
@<TRIPOS>UNITY_ATOM_ATTR
6 1
charge 1
22 1
charge 1
29 1
charge 1
@<TRIPOS>BOND
     1     9    10   ar
     2    20    22    1
     3     5     8   ar
     4    21    23   am
     5    10    11   ar
     6    21    24    2
     7     1     2    1
     8    23    25    1
     9    11    12   ar
    10    12     7   ar
    11    26    27    1
    12    27    25    1
    13    13    14   ar
    14    26    28    1
    15    28    31   ar
    16     7     6   ar
    17    30    29   ar
    18    29    37   ar
    19    36    28   ar
    20     6    14   ar
    21    13     5   ar
    22    30    31   ar
    23     3     4    1
    24    31    32   ar
    25     4     2    1
    26    32    33   ar
    27     7     8   ar
    28    33    34   ar
    29    13    18    1
    30    34    35   ar
    31    35    30   ar
    32    36    37   ar
    33    14    15    1
    34    15    16    1
    35    16    17    1
    36    17    18    1
    37     8     9   ar
    38    36    41    1
    39    37    38    1
    40    38    39    1
    41    39    40    1
    42    40    41    1
    43    19    20    1
    44    19    42    1
    45     3     5    1
    46    42    43    1
    47    43     1   am
    48    20    21    1
    49    43    44    2
    50     1    45    1
    51     2    46    1
    52     2    47    1
    53     3    48    1
    54     4    49    1
    55     4    50    1
    56     6    51    1
    57     9    52    1
    58    10    53    1
    59    11    54    1
    60    12    55    1
    61    15    56    1
    62    15    57    1
    63    16    58    1
    64    16    59    1
    65    17    60    1
    66    17    61    1
    67    18    62    1
    68    18    63    1
    69    19    64    1
    70    19    65    1
    71    20    66    1
    72    22    67    1
    73    22    68    1
    74    22    69    1
    75    23    70    1
    76    25    71    1
    77    25    72    1
    78    26    73    1
    79    27    74    1
    80    27    75    1
    81    29    76    1
    82    32    77    1
    83    33    78    1
    84    34    79    1
    85    35    80    1
    86    38    81    1
    87    38    82    1
    88    39    83    1
    89    39    84    1
    90    40    85    1
    91    40    86    1
    92    41    87    1
    93    41    88    1
    94    42    89    1
    95    42    90    1
@<TRIPOS>MOLECULE
BDB8961
 30 32 0 0 0
SMALL
GASTEIGER

@<TRIPOS>ATOM
      1 C           1.2101   -0.7035   -0.0022 C.ar    1  UNL1       -0.0465
      2 C           1.2139    0.6862   -0.0007 C.ar    1  UNL1       -0.0607
      3 C           0.0122    1.3846    0.0009 C.ar    1  UNL1       -0.0555
      4 C          -1.1938    0.6943    0.0031 C.ar    1  UNL1        0.0103
      5 C           0.0023   -1.3905   -0.0010 C.ar    1  UNL1        0.0672
      6 C          -1.1986   -0.6952    0.0030 C.ar    1  UNL1        0.2152
      7 C          -0.0173   -2.7765   -0.0050 C.ar    1  UNL1        0.0473
      8 C          -1.2408   -3.4312   -0.0040 C.ar    1  UNL1        0.0406
      9 C          -2.4130   -2.6763    0.0061 C.ar    1  UNL1        0.1876
     10 C          -1.2620   -4.9397   -0.0019 C.3     1  UNL1       -0.0200
     11 C          -3.7727   -3.3295    0.0000 C.3     1  UNL1        0.0328
     12 C          -3.6888   -4.7963    0.4301 C.3     1  UNL1       -0.0432
     13 C          -2.6326   -5.4754   -0.4282 C.3     1  UNL1       -0.0483
     14 N          -2.3546   -1.3485    0.0065 N.ar    1  UNL1       -0.2077
     15 N           1.2025   -3.5192   -0.0092 N.pl3   1  UNL1       -0.3570
     16 H           2.1015   -1.2236   -0.0042 H       1  UNL1        0.0626
     17 H           2.1091    1.1997   -0.0008 H       1  UNL1        0.0618
     18 H           0.0156    2.4166    0.0005 H       1  UNL1        0.0620
     19 H          -2.0857    1.2135    0.0048 H       1  UNL1        0.0683
     20 H          -1.0417   -5.2904    0.9847 H       1  UNL1        0.0316
     21 H          -0.5297   -5.2897   -0.6992 H       1  UNL1        0.0316
     22 H          -4.1788   -3.2791   -0.9886 H       1  UNL1        0.0372
     23 H          -4.3994   -2.8099    0.6944 H       1  UNL1        0.0372
     24 H          -4.6361   -5.2724    0.2854 H       1  UNL1        0.0270
     25 H          -3.4293   -4.8668    1.4658 H       1  UNL1        0.0270
     26 H          -2.6706   -6.5345   -0.2809 H       1  UNL1        0.0269
     27 H          -2.8066   -5.2707   -1.4639 H       1  UNL1        0.0269
     28 H          -3.1938   -0.8338    0.0095 H       1  UNL1        0.4531
     29 H           2.0663   -3.0470   -0.0099 H       1  UNL1        0.1424
     30 H           1.1795   -4.5034   -0.0114 H       1  UNL1        0.1424
@<TRIPOS>UNITY_ATOM_ATTR
14 1
charge 1
@<TRIPOS>BOND
     1     1     2   ar
     2     1     5   ar
     3     2     3   ar
     4     3     4   ar
     5     4     6   ar
     6     7     5   ar
     7     5     6   ar
     8     6    14   ar
     9     7     8   ar
    10    14     9   ar
    11    10     8    1
    12     8     9   ar
    13     9    11    1
    14    10    13    1
    15    11    12    1
    16    12    13    1
    17     7    15    1
    18     1    16    1
    19     2    17    1
    20     3    18    1
    21     4    19    1
    22    10    20    1
    23    10    21    1
    24    11    22    1
    25    11    23    1
    26    12    24    1
    27    12    25    1
    28    13    26    1
    29    13    27    1
    30    14    28    1
    31    15    29    1
    32    15    30    1
@<TRIPOS>MOLECULE
BDB50004011
 55 58 0 0 0
SMALL
GASTEIGER

@<TRIPOS>ATOM
      1 N           1.7140   -2.9612   -0.0004 N.am    1  UNL1       -0.2341
      2 C           2.2947   -1.6727   -0.0003 C.2     1  UNL1        0.2539
      3 C           0.3086   -2.8173   -0.0004 C.2     1  UNL1        0.2538
      4 C           1.2079   -0.7045   -0.0002 C.ar    1  UNL1        0.0529
      5 C           0.0161   -1.3919   -0.0003 C.ar    1  UNL1        0.0496
      6 C           2.4295   -4.2034   -0.0005 C.3     1  UNL1        0.0232
      7 N           4.6871   -8.1971   -0.0022 N.4     1  UNL1        0.2385
      8 C          -1.2059   -0.7410   -0.0002 C.ar    1  UNL1       -0.0454
      9 O           3.5022   -1.4170   -0.0002 O.2     1  UNL1       -0.2695
     10 O          -0.5183   -3.7335   -0.0005 O.2     1  UNL1       -0.2695
     11 C           1.2569    0.6796   -0.0001 C.ar    1  UNL1       -0.0071
     12 C           5.3986   -9.5209   -0.0026 C.3     1  UNL1       -0.0059
     13 C           5.0691   -7.4443   -1.2140 C.3     1  UNL1       -0.0313
     14 C           5.0677   -7.4459    1.2110 C.3     1  UNL1       -0.0313
     15 C           0.0362    1.3544    0.0000 C.ar    1  UNL1        0.1209
     16 C           3.9508   -3.9450   -0.0004 C.3     1  UNL1       -0.0335
     17 C          -1.1744    0.6531   -0.0001 C.ar    1  UNL1       -0.0192
     18 C           4.7045   -5.2893   -0.0007 C.3     1  UNL1       -0.0300
     19 C           6.9458   -9.5173   -0.0016 C.ar    1  UNL1       -0.0029
     20 C           4.3250   -6.0969   -1.2480 C.3     1  UNL1       -0.0094
     21 C           4.3249   -6.0974    1.2464 C.3     1  UNL1       -0.0094
     22 O           0.0219    2.7546    0.0001 O.3     1  UNL1       -0.4951
     23 C           7.6970   -8.3477   -0.0007 C.ar    1  UNL1       -0.0535
     24 C           7.5873  -10.7527   -0.0017 C.ar    1  UNL1       -0.0535
     25 C           1.3554    3.2844    0.0002 C.3     1  UNL1        0.0788
     26 C           9.0861   -8.4113    0.0001 C.ar    1  UNL1       -0.0613
     27 C           8.9752  -10.8163   -0.0009 C.ar    1  UNL1       -0.0613
     28 C           9.7246   -9.6451    0.0000 C.ar    1  UNL1       -0.0617
     29 H           2.1664   -4.7622   -0.8742 H       1  UNL1        0.0470
     30 H           2.1700   -4.7547    0.8791 H       1  UNL1        0.0470
     31 H           3.6768   -8.3375   -0.0029 H       1  UNL1        0.2037
     32 H          -2.0966   -1.2622   -0.0002 H       1  UNL1        0.0626
     33 H           2.1549    1.1881   -0.0001 H       1  UNL1        0.0662
     34 H           5.0828  -10.0509   -0.8768 H       1  UNL1        0.0867
     35 H           5.1331   -9.9658    0.9336 H       1  UNL1        0.0867
     36 H           6.1243   -7.2671   -1.2040 H       1  UNL1        0.0814
     37 H           4.8071   -8.0142   -2.0808 H       1  UNL1        0.0814
     38 H           6.1230   -7.2696    1.2028 H       1  UNL1        0.0814
     39 H           4.8033   -8.0168    2.0765 H       1  UNL1        0.0814
     40 H           4.2171   -3.3878    0.8734 H       1  UNL1        0.0283
     41 H           4.2164   -3.3889   -0.8751 H       1  UNL1        0.0283
     42 H          -2.0626    1.1785   -0.0001 H       1  UNL1        0.0654
     43 H           5.7568   -5.0955   -0.0007 H       1  UNL1        0.0305
     44 H           3.2691   -6.2697   -1.2567 H       1  UNL1        0.0319
     45 H           4.5976   -5.5539   -2.1287 H       1  UNL1        0.0319
     46 H           4.6059   -5.5553    2.1251 H       1  UNL1        0.0319
     47 H           3.2683   -6.2654    1.2622 H       1  UNL1        0.0319
     48 H           7.2231   -7.4309   -0.0006 H       1  UNL1        0.0622
     49 H           7.0314  -11.6222   -0.0024 H       1  UNL1        0.0622
     50 H           1.3144    4.3536    0.0003 H       1  UNL1        0.0660
     51 H           1.8731    2.9474   -0.8735 H       1  UNL1        0.0660
     52 H           1.8731    2.9473    0.8738 H       1  UNL1        0.0660
     53 H           9.6426   -7.5422    0.0008 H       1  UNL1        0.0618
     54 H           9.4498  -11.7327   -0.0010 H       1  UNL1        0.0618
     55 H          10.7555   -9.6924    0.0006 H       1  UNL1        0.0618
@<TRIPOS>UNITY_ATOM_ATTR
7 1
charge 1
@<TRIPOS>BOND
     1     2     1   am
     2     3     1   am
     3     4     2    1
     4     5     3    1
     5     6     1    1
     6     7    14    1
     7     8     5   ar
     8     9     2    2
     9    10     3    2
    10    11     4   ar
    11    12     7    1
    12    13    20    1
    13    14    21    1
    14    15    11   ar
    15    16     6    1
    16    17     8   ar
    17    18    16    1
    18    19    12    1
    19    20    18    1
    20    21    18    1
    21    22    15    1
    22    23    19   ar
    23    24    19   ar
    24    25    22    1
    25    26    23   ar
    26    27    24   ar
    27    28    27   ar
    28     5     4   ar
    29    15    17   ar
    30     7    13    1
    31    28    26   ar
    32     6    29    1
    33     6    30    1
    34     7    31    1
    35     8    32    1
    36    11    33    1
    37    12    34    1
    38    12    35    1
    39    13    36    1
    40    13    37    1
    41    14    38    1
    42    14    39    1
    43    16    40    1
    44    16    41    1
    45    17    42    1
    46    18    43    1
    47    20    44    1
    48    20    45    1
    49    21    46    1
    50    21    47    1
    51    23    48    1
    52    24    49    1
    53    25    50    1
    54    25    51    1
    55    25    52    1
    56    26    53    1
    57    27    54    1
    58    28    55    1
