#	Name:			CHEMBL1496
#	Creating user name:	trannguyen
#	Creation time:		Fri Mar 18 16:33:25 2022


#	Modifying user name:	trannguyen
#	Modification time:	Fri Mar 18 16:33:25 2022

@<TRIPOS>MOLECULE
CHEMBL1496
 36 37 0 0 0
SMALL
GASTEIGER

@<TRIPOS>ATOM
      1 C           9.0496   32.7817    9.1693 C.ar    1  UNL1        0.0629
      2 N           9.6103   33.8516    8.5673 N.ar    1  UNL1       -0.2168
      3 C           8.8796   34.9631    8.4900 C.ar    1  UNL1        0.2387
      4 N           7.6242   35.1074    8.8924 N.ar    1  UNL1       -0.2124
      5 C           7.0436   34.0393    9.4889 C.ar    1  UNL1        0.0853
      6 C           7.7301   32.8181    9.6512 C.ar    1  UNL1        0.0311
      7 C           5.6369   34.3200    9.9086 C.ar    1  UNL1        0.0179
      8 C           5.2923   34.8295   11.1757 C.ar    1  UNL1        0.0038
      9 C           3.9643   35.0575   11.5482 C.ar    1  UNL1        0.0297
     10 C           2.9506   34.8285   10.6337 C.ar    1  UNL1        0.1401
     11 F           1.6806   35.0620   10.9853 F       1  UNL1       -0.2042
     12 C           3.2423   34.3787    9.3560 C.ar    1  UNL1        0.0297
     13 C           4.5718   34.1227    9.0008 C.ar    1  UNL1        0.0038
     14 C           9.8190   30.7302    7.9182 C.3     1  UNL1        0.0063
     15 C           9.9303   31.5374    9.2150 C.3     1  UNL1        0.0404
     16 C          11.4064   31.8492    9.5200 C.3     1  UNL1        0.0063
     17 N           9.4765   36.0062    7.7675 N.pl3   1  UNL1       -0.1605
     18 C           9.8886   37.1498    8.5962 C.3     1  UNL1        0.1420
     19 S           8.6843   36.3901    6.3360 S.O2    1  UNL1        0.0611
     20 C           9.9850   36.8541    5.1978 C.3     1  UNL1        0.1999
     21 O           8.0634   35.1803    5.8061 O.2     1  UNL1       -0.1541
     22 O           7.8700   37.5554    6.5895 O.2     1  UNL1       -0.1541
     23 C           7.0650   31.6361   10.2222 C.2     1  UNL1        0.0005
     24 C           6.2491   30.8288    9.5191 C.2     1  UNL1        0.0027
     25 C           5.6697   29.5496   10.0665 C.3     1  UNL1        0.1349
     26 O           5.5479   29.6727   11.4752 O.3     1  UNL1       -0.3800
     27 H           6.4267   29.8839   11.8331 H       1  UNL1        0.2108
     28 C           4.2816   29.2460    9.4943 C.3     1  UNL1        0.0636
     29 C           3.1187   29.5998   10.4360 C.3     1  UNL1        0.1244
     30 O           2.9822   31.0342   10.4260 O.3     1  UNL1       -0.3838
     31 H           3.7669   31.3862   10.8928 H       1  UNL1        0.2104
     32 C           1.7812   29.0161    9.9927 C.3     1  UNL1        0.1385
     33 C           1.1341   28.2220   11.1024 C.2     1  UNL1        0.3163
     34 O           1.7341   27.8135   12.0812 O.2     1  UNL1       -0.2502
     35 O          -0.1740   27.9528   10.8805 O.3     1  UNL1       -0.4801
     36 H          -0.5080   28.4452   10.0936 H       1  UNL1        0.2951
@<TRIPOS>BOND
     1    14    15    1
     2    15    16    1
     3    15     1    1
     4     1     2   ar
     5     1     6   ar
     6     2     3   ar
     7     3    17    1
     8     3     4   ar
     9    17    18    1
    10    17    19    1
    11    19    20    1
    12    19    21    2
    13    19    22    2
    14     4     5   ar
    15     5     7    1
    16     5     6   ar
    17     7     8   ar
    18     7    13   ar
    19     8     9   ar
    20     9    10   ar
    21    10    11    1
    22    10    12   ar
    23    12    13   ar
    24     6    23    1
    25    23    24    2
    26    24    25    1
    27    25    26    1
    28    25    28    1
    29    26    27    1
    30    28    29    1
    31    29    30    1
    32    29    32    1
    33    30    31    1
    34    32    33    1
    35    33    34    2
    36    33    35    1
    37    35    36    1



#	Name:			CHEMBL1487
#	Creating user name:	trannguyen
#	Creation time:		Fri Mar 18 16:33:25 2022


#	Modifying user name:	trannguyen
#	Modification time:	Fri Mar 18 16:33:25 2022

@<TRIPOS>MOLECULE
CHEMBL1487
 45 48 0 0 0
SMALL
GASTEIGER

@<TRIPOS>ATOM
      1 C           3.6691   33.0119    6.4560 C.ar    1  UNL1        0.0410
      2 C           4.9952   32.5843    6.1556 C.ar    1  UNL1        0.0667
      3 C           5.6995   32.4584    7.4251 C.ar    1  UNL1        0.0212
      4 C           4.6490   32.3160    8.3336 C.ar    1  UNL1        0.0597
      5 N           3.6914   33.2060    7.8458 N.ar    1  UNL1       -0.3304
      6 C           4.2428   31.0381    8.9611 C.ar    1  UNL1        0.0159
      7 C           2.8900   30.6402    8.9694 C.ar    1  UNL1        0.0037
      8 C           2.4887   29.4969    9.6632 C.ar    1  UNL1        0.0297
      9 C           3.4393   28.7431   10.3354 C.ar    1  UNL1        0.1401
     10 F           3.0641   27.6565   11.0208 F       1  UNL1       -0.2042
     11 C           4.7819   29.0856   10.2869 C.ar    1  UNL1        0.0297
     12 C           5.1773   30.2296    9.5998 C.ar    1  UNL1        0.0037
     13 C           7.0760   32.0913    7.8228 C.ar    1  UNL1        0.0016
     14 C           7.7867   32.7042    8.8569 C.ar    1  UNL1        0.0000
     15 C           9.0502   32.2434    9.2544 C.ar    1  UNL1        0.0000
     16 C           9.6478   31.1740    8.5982 C.ar    1  UNL1        0.0000
     17 C           8.9962   30.5899    7.5184 C.ar    1  UNL1        0.0000
     18 C           7.7252   31.0443    7.1361 C.ar    1  UNL1        0.0000
     19 C           5.4811   32.2096    4.8311 C.2     1  UNL1        0.2506
     20 O           5.0922   31.1398    4.2932 O.2     1  UNL1       -0.2698
     21 N           6.2883   33.1106    4.2107 N.am    1  UNL1       -0.2803
     22 H           6.5298   33.9400    4.7408 H       1  UNL1        0.1552
     23 C           6.8982   32.9789    2.9469 C.ar    1  UNL1        0.0505
     24 C           6.6427   33.8505    1.8846 C.ar    1  UNL1        0.0147
     25 C           7.0859   33.5383    0.5980 C.ar    1  UNL1        0.0013
     26 C           7.8315   32.3847    0.3788 C.ar    1  UNL1        0.0001
     27 C           8.1904   31.5759    1.4551 C.ar    1  UNL1        0.0013
     28 C           7.7246   31.8731    2.7368 C.ar    1  UNL1        0.0147
     29 C           2.6957   33.9600    4.2872 C.3     1  UNL1        0.0062
     30 C           2.4316   33.1572    5.5661 C.3     1  UNL1        0.0385
     31 C           1.8330   31.8755    5.0532 C.3     1  UNL1        0.0062
     32 C           3.3129   34.4245    8.5672 C.3     1  UNL1        0.1082
     33 C           2.4997   34.2697    9.8654 C.3     1  UNL1        0.0538
     34 C           2.1274   35.5407   10.6810 C.3     1  UNL1        0.1149
     35 O           3.2235   35.8479   11.5514 O.3     1  UNL1       -0.3843
     36 H           4.0041   36.0149   10.9885 H       1  UNL1        0.2103
     37 C           1.8821   36.8079    9.8394 C.3     1  UNL1        0.0591
     38 C           1.1223   37.9943   10.5049 C.3     1  UNL1        0.1241
     39 O           1.8109   38.3792   11.6941 O.3     1  UNL1       -0.3838
     40 H           2.0141   37.5393   12.1663 H       1  UNL1        0.2104
     41 C           1.0572   39.2273    9.5750 C.3     1  UNL1        0.1385
     42 C           0.8829   40.5972   10.2103 C.2     1  UNL1        0.3163
     43 O          -0.1561   41.2408   10.1162 O.2     1  UNL1       -0.2502
     44 O           1.9914   41.1219   10.7680 O.3     1  UNL1       -0.4801
     45 H           2.7702   40.5270   10.6680 H       1  UNL1        0.2951
@<TRIPOS>BOND
     1    29    30    1
     2    30    31    1
     3    30     1    1
     4     1     2   ar
     5     1     5   ar
     6     2    19    1
     7     2     3   ar
     8    19    20    2
     9    19    21   am
    10    21    23    1
    11    21    22    1
    12    23    24   ar
    13    23    28   ar
    14    24    25   ar
    15    25    26   ar
    16    26    27   ar
    17    27    28   ar
    18     3    13    1
    19     3     4   ar
    20    13    14   ar
    21    13    18   ar
    22    14    15   ar
    23    15    16   ar
    24    16    17   ar
    25    17    18   ar
    26     4     6    1
    27     4     5   ar
    28     6     7   ar
    29     6    12   ar
    30     7     8   ar
    31     8     9   ar
    32     9    10    1
    33     9    11   ar
    34    11    12   ar
    35     5    32    1
    36    32    33    1
    37    33    34    1
    38    34    35    1
    39    34    37    1
    40    35    36    1
    41    37    38    1
    42    38    39    1
    43    38    41    1
    44    39    40    1
    45    41    42    1
    46    42    43    2
    47    42    44    1
    48    44    45    1



#	Name:			CHEMBL54440
#	Creating user name:	trannguyen
#	Creation time:		Fri Mar 18 16:33:25 2022


#	Modifying user name:	trannguyen
#	Modification time:	Fri Mar 18 16:33:25 2022

@<TRIPOS>MOLECULE
CHEMBL54440
 29 31 0 0 0
SMALL
GASTEIGER

@<TRIPOS>ATOM
      1 C           2.3284   31.3127    8.3455 C.3     1  UNL1        0.1730
      2 C           1.3112   30.2979    8.9289 C.3     1  UNL1        0.0486
      3 C           1.7095   29.6326   10.2502 C.3     1  UNL1        0.0294
      4 C           3.1713   29.3252   10.2915 C.2     1  UNL1       -0.0302
      5 C           4.0634   30.1954    9.7891 C.2     1  UNL1       -0.0236
      6 C           5.4571   29.8508    9.6957 C.2     1  UNL1       -0.0091
      7 C           6.3950   30.7441    9.3701 C.2     1  UNL1       -0.0268
      8 C           6.1116   32.2110    9.2069 C.3     1  UNL1        0.0224
      9 C           6.4908   32.8694   10.5400 C.3     1  UNL1        0.0047
     10 C           4.6690   32.4851    8.6706 C.3     1  UNL1        0.0117
     11 C           3.5691   31.5460    9.2891 C.3     1  UNL1        0.0624
     12 O           2.7773   30.9657    7.0022 O.3     1  UNL1       -0.4519
     13 C           2.1600   31.5612    5.9264 C.2     1  UNL1        0.3163
     14 O           1.0508   32.0462    5.9395 O.2     1  UNL1       -0.2501
     15 C           3.1343   31.6451    4.7417 C.3     1  UNL1        0.0991
     16 C           2.3841   31.8332    3.4283 C.3     1  UNL1        0.0116
     17 C           5.6060   32.2175    5.1596 C.3     1  UNL1        0.0006
     18 C           4.1887   32.7489    4.9674 C.3     1  UNL1        0.0111
     19 C           4.2409   33.9752    8.7881 C.3     1  UNL1        0.0045
     20 C           3.3264   34.3239    9.9737 C.3     1  UNL1        0.0437
     21 C           2.0329   35.1043    9.6709 C.3     1  UNL1        0.1713
     22 C           2.3707   36.5973    9.7124 C.3     1  UNL1        0.0734
     23 C           1.1490   37.4848    9.8175 C.3     1  UNL1        0.1252
     24 O           0.5434   37.6193    8.5370 O.3     1  UNL1       -0.3838
     25 C           0.1507   36.9649   10.8242 C.3     1  UNL1        0.1388
     26 C          -0.0863   35.4865   10.7105 C.2     1  UNL1        0.3194
     27 O          -1.1924   34.9892   10.8981 O.2     1  UNL1       -0.2500
     28 O           1.0320   34.7265   10.6268 O.3     1  UNL1       -0.4521
     29 H          -0.0796   38.3686    8.5843 H       1  UNL1        0.2104
@<TRIPOS>BOND
     1    17    18    1
     2    15    16    1
     3    15    13    1
     4    15    18    1
     5    13    14    2
     6    13    12    1
     7     1     2    1
     8     1    11    1
     9     1    12    1
    10     2     3    1
    11     3     4    1
    12     4     5    2
    13     5     6    1
    14     5    11    1
    15     6     7    2
    16     7     8    1
    17     8     9    1
    18     8    10    1
    19    10    19    1
    20    10    11    1
    21    19    20    1
    22    20    21    1
    23    21    22    1
    24    21    28    1
    25    22    23    1
    26    23    25    1
    27    23    24    1
    28    24    29    1
    29    25    26    1
    30    26    27    2
    31    26    28    1



#	Name:			CHEMBL1144
#	Creating user name:	trannguyen
#	Creation time:		Fri Mar 18 16:33:25 2022


#	Modifying user name:	trannguyen
#	Modification time:	Fri Mar 18 16:33:25 2022

@<TRIPOS>MOLECULE
CHEMBL1144
 34 35 0 0 0
SMALL
GASTEIGER

@<TRIPOS>ATOM
      1 C           4.1087   31.9491    7.8644 C.3     1  UNL1        0.1755
      2 C           5.2381   32.7259    8.5472 C.3     1  UNL1        0.0777
      3 C           6.3510   31.7582    8.9681 C.3     1  UNL1        0.1358
      4 O           7.1245   31.3510    7.8467 O.3     1  UNL1       -0.3799
      5 C           5.8261   30.5284    9.6363 C.2     1  UNL1       -0.0015
      6 C           4.5326   30.1633    9.6203 C.2     1  UNL1       -0.0213
      7 C           4.0899   29.0804   10.4691 C.2     1  UNL1       -0.0090
      8 C           2.8175   28.9917   10.8717 C.2     1  UNL1       -0.0268
      9 C           1.7403   29.9764   10.4818 C.3     1  UNL1        0.0224
     10 C           0.7301   29.2259    9.5994 C.3     1  UNL1        0.0047
     11 C           2.3254   31.2988    9.8406 C.3     1  UNL1        0.0116
     12 C           3.4512   30.8995    8.8194 C.3     1  UNL1        0.0626
     13 H           6.6812   30.5961    7.4234 H       1  UNL1        0.2108
     14 O           3.1246   32.7922    7.2454 O.3     1  UNL1       -0.4518
     15 C           2.5964   32.3489    6.0687 C.2     1  UNL1        0.3163
     16 O           1.4059   32.3627    5.7829 O.2     1  UNL1       -0.2501
     17 C           3.6867   31.9344    5.0940 C.3     1  UNL1        0.0991
     18 C           3.0866   31.0154    4.0289 C.3     1  UNL1        0.0116
     19 C           5.9018   33.1654    4.7543 C.3     1  UNL1        0.0006
     20 C           4.3977   33.1606    4.5144 C.3     1  UNL1        0.0111
     21 C           1.2080   32.2225    9.3049 C.3     1  UNL1        0.0033
     22 C           0.7472   33.2861   10.3181 C.3     1  UNL1        0.0293
     23 C           1.5887   34.5739   10.3201 C.3     1  UNL1        0.1130
     24 O           2.2647   34.7321    9.0791 O.3     1  UNL1       -0.3844
     25 H           2.7966   33.9304    8.9255 H       1  UNL1        0.2103
     26 C           0.7653   35.8371   10.5941 C.3     1  UNL1        0.0590
     27 C           1.3222   37.1112    9.9365 C.3     1  UNL1        0.1241
     28 O           0.5441   37.3619    8.7497 O.3     1  UNL1       -0.3838
     29 H           0.7564   36.6394    8.1251 H       1  UNL1        0.2104
     30 C           1.1955   38.3336   10.8367 C.3     1  UNL1        0.1385
     31 C           0.8347   39.5768   10.0602 C.2     1  UNL1        0.3163
     32 O          -0.2828   40.0525   10.0286 O.2     1  UNL1       -0.2502
     33 O           1.8648   40.0742    9.3373 O.3     1  UNL1       -0.4801
     34 H           2.7081   39.6138    9.5617 H       1  UNL1        0.2951
@<TRIPOS>BOND
     1    19    20    1
     2    17    18    1
     3    17    15    1
     4    17    20    1
     5    15    16    2
     6    15    14    1
     7     1     2    1
     8     1    12    1
     9     1    14    1
    10     2     3    1
    11     3     5    1
    12     3     4    1
    13     4    13    1
    14     5     6    2
    15     6     7    1
    16     6    12    1
    17     7     8    2
    18     8     9    1
    19     9    10    1
    20     9    11    1
    21    11    21    1
    22    11    12    1
    23    21    22    1
    24    22    23    1
    25    23    24    1
    26    23    26    1
    27    24    25    1
    28    26    27    1
    29    27    28    1
    30    27    30    1
    31    28    29    1
    32    30    31    1
    33    31    32    2
    34    31    33    1
    35    33    34    1



#	Name:			CHEMBL169046
#	Creating user name:	trannguyen
#	Creation time:		Fri Mar 18 16:33:25 2022


#	Modifying user name:	trannguyen
#	Modification time:	Fri Mar 18 16:33:25 2022

@<TRIPOS>MOLECULE
CHEMBL169046
 31 34 0 0 0
SMALL
GASTEIGER

@<TRIPOS>ATOM
      1 C           3.2898   32.5635    8.1969 C.3     1  UNL1        0.0000
      2 C           2.7855   33.5677    9.2438 C.3     1  UNL1        0.0000
      3 C           4.0479   34.3516    9.6006 C.3     1  UNL1        0.0000
      4 C           5.0711   33.2390    9.8285 C.3     1  UNL1        0.0003
      5 C           6.5374   33.7213    9.9620 C.3     1  UNL1        0.0046
      6 C           7.3459   32.7669   10.8753 C.3     1  UNL1        0.0254
      7 C           8.8065   33.0769   10.9227 C.2     1  UNL1       -0.0345
      8 C           9.4381   33.8528   10.0166 C.2     1  UNL1       -0.0467
      9 C          10.8407   34.3416   10.2749 C.3     1  UNL1        0.0509
     10 C          10.8039   35.8603   10.4914 C.3     1  UNL1        0.1145
     11 O          12.1292   36.3737   10.5999 O.3     1  UNL1       -0.3841
     12 C          10.0871   36.5909    9.3511 C.3     1  UNL1        0.0299
     13 C           8.7123   35.9841    9.0265 C.3     1  UNL1        0.0062
     14 C           8.7417   34.4418    8.7929 C.3     1  UNL1        0.0150
     15 C           9.5635   34.1560    7.5092 C.3     1  UNL1        0.0040
     16 C           7.2617   33.9045    8.6095 C.3     1  UNL1        0.0038
     17 C           7.1506   32.5865    7.8163 C.3     1  UNL1        0.0003
     18 C           5.6974   32.2687    7.5034 C.3     1  UNL1        0.0000
     19 C           4.7429   32.1772    8.7181 C.3     1  UNL1        0.0000
     20 C           4.8269   30.7927    9.3982 C.3     1  UNL1        0.0000
     21 H          12.5401   35.9510   11.3736 H       1  UNL1        0.2103
     22 C           2.1299   31.2984    6.2773 C.3     1  UNL1        0.0000
     23 C           2.2838   31.4378    7.8044 C.3     1  UNL1        0.0000
     24 C           0.8700   31.7144    8.4126 C.3     1  UNL1        0.0001
     25 C           0.3172   30.5587    9.2661 C.3     1  UNL1        0.0024
     26 C           1.0498   29.2220    9.0367 C.3     1  UNL1        0.0269
     27 C           1.4638   28.5102   10.3504 C.3     1  UNL1        0.0885
     28 C           2.5097   27.4195   10.0856 C.3     1  UNL1        0.0293
     29 C           2.0070   29.4859   11.3977 C.3     1  UNL1        0.0293
     30 O           0.3136   27.8801   10.9212 O.3     1  UNL1       -0.3867
     31 H           0.0266   27.1751   10.3160 H       1  UNL1        0.2102
@<TRIPOS>BOND
     1    23    24    1
     2    23    22    1
     3    24    25    1
     4    25    26    1
     5    26    27    1
     6    27    28    1
     7    27    29    1
     8    27    30    1
     9    30    31    1
    10     1     2    1
    11     1    19    1
    12     1    23    1
    13     2     3    1
    14     3     4    1
    15     4     5    1
    16     4    19    1
    17     5     6    1
    18     5    16    1
    19     6     7    1
    20     7     8    2
    21     8     9    1
    22     8    14    1
    23     9    10    1
    24    10    12    1
    25    10    11    1
    26    11    21    1
    27    12    13    1
    28    13    14    1
    29    14    16    1
    30    14    15    1
    31    16    17    1
    32    17    18    1
    33    18    19    1
    34    19    20    1



#	Name:			CHEMBL1477
#	Creating user name:	trannguyen
#	Creation time:		Fri Mar 18 16:33:25 2022


#	Modifying user name:	trannguyen
#	Modification time:	Fri Mar 18 16:33:25 2022

@<TRIPOS>MOLECULE
CHEMBL1477
 36 37 0 0 0
SMALL
GASTEIGER

@<TRIPOS>ATOM
      1 C           7.5881   33.1157    4.2509 C.ar    1  UNL1        0.0208
      2 C           6.9803   32.8467    3.0155 C.ar    1  UNL1        0.0566
      3 N           5.7845   32.2182    3.0098 N.ar    1  UNL1       -0.2542
      4 C           5.0247   32.1278    4.1260 C.ar    1  UNL1        0.0581
      5 C           5.5630   32.3777    5.4114 C.ar    1  UNL1        0.0131
      6 C           6.9666   32.6161    5.4643 C.ar    1  UNL1        0.0006
      7 C           7.8298   32.2161    6.6683 C.ar    1  UNL1       -0.0000
      8 C           8.3381   30.8918    6.7963 C.ar    1  UNL1        0.0023
      9 C           9.1972   30.4977    7.8360 C.ar    1  UNL1        0.0296
     10 C           9.4663   31.3808    8.8629 C.ar    1  UNL1        0.1401
     11 F          10.2622   31.0107    9.8745 F       1  UNL1       -0.2042
     12 C           8.9112   32.6473    8.8473 C.ar    1  UNL1        0.0296
     13 C           8.1316   33.0615    7.7512 C.ar    1  UNL1        0.0023
     14 C           7.4707   33.0721    1.5779 C.3     1  UNL1        0.0400
     15 C           7.7569   31.6981    0.8992 C.3     1  UNL1        0.0063
     16 C           6.7627   34.0563    0.6376 C.3     1  UNL1        0.0063
     17 C           3.6016   31.7319    3.7560 C.3     1  UNL1        0.0403
     18 C           2.9032   30.9020    4.7992 C.3     1  UNL1        0.0063
     19 C           2.6646   32.9145    3.4726 C.3     1  UNL1        0.0063
     20 C           4.6665   32.8741    6.5245 C.2     1  UNL1       -0.0010
     21 C           4.4513   32.4016    7.7729 C.2     1  UNL1        0.0026
     22 C           3.2903   32.7038    8.7246 C.3     1  UNL1        0.1349
     23 O           2.8198   34.0160    8.4579 O.3     1  UNL1       -0.3800
     24 H           3.6002   34.5749    8.3054 H       1  UNL1        0.2108
     25 C           2.0876   31.7462    8.9508 C.3     1  UNL1        0.0636
     26 C           2.1818   30.6032    9.9778 C.3     1  UNL1        0.1244
     27 O           1.8452   31.1885   11.2534 O.3     1  UNL1       -0.3838
     28 H           1.4761   30.4887   11.8291 H       1  UNL1        0.2104
     29 C           1.2469   29.4328    9.6899 C.3     1  UNL1        0.1385
     30 C           1.0555   28.5497   10.9043 C.2     1  UNL1        0.3163
     31 O           1.8016   28.3940   11.7979 O.2     1  UNL1       -0.2502
     32 O          -0.1552   27.8803   10.8677 O.3     1  UNL1       -0.4801
     33 H          -0.1071   27.3067   11.6590 H       1  UNL1        0.2951
     34 C           8.8205   33.9818    4.3985 C.3     1  UNL1        0.1699
     35 C          10.9713   33.7516    5.2509 C.3     1  UNL1        0.1746
     36 O          10.0554   33.2681    4.2626 O.3     1  UNL1       -0.3463
@<TRIPOS>BOND
     1    35    36    1
     2    36    34    1
     3    34     1    1
     4     1     2   ar
     5     1     6   ar
     6     2    14    1
     7     2     3   ar
     8    14    15    1
     9    14    16    1
    10     3     4   ar
    11     4    17    1
    12     4     5   ar
    13    17    18    1
    14    17    19    1
    15     5    20    1
    16     5     6   ar
    17    20    21    2
    18    21    22    1
    19    22    23    1
    20    22    25    1
    21    23    24    1
    22    25    26    1
    23    26    27    1
    24    26    29    1
    25    27    28    1
    26    29    30    1
    27    30    31    2
    28    30    32    1
    29    32    33    1
    30     6     7    1
    31     7     8   ar
    32     7    13   ar
    33     8     9   ar
    34     9    10   ar
    35    10    11    1
    36    10    12   ar
    37    12    13   ar



#	Name:			CHEMBL1161644
#	Creating user name:	trannguyen
#	Creation time:		Fri Mar 18 16:33:25 2022


#	Modifying user name:	trannguyen
#	Modification time:	Fri Mar 18 16:33:25 2022

@<TRIPOS>MOLECULE
CHEMBL1161644
 36 38 0 0 0
SMALL
GASTEIGER

@<TRIPOS>ATOM
      1 C           2.7628   32.2395    5.9068 C.ar    1  UNL1        0.0410
      2 C           2.1454   31.4362    6.8321 C.ar    1  UNL1        0.0145
      3 C           3.0440   31.1540    7.9086 C.ar    1  UNL1        0.0172
      4 C           4.2300   31.9434    7.7055 C.ar    1  UNL1        0.0637
      5 N           4.1104   32.3506    6.3043 N.ar    1  UNL1       -0.3088
      6 C           2.6745   30.2094    8.9998 C.ar    1  UNL1        0.0016
      7 C           3.6126   29.5847    9.8191 C.ar    1  UNL1        0.0024
      8 C           3.2959   28.5348   10.6866 C.ar    1  UNL1        0.0296
      9 C           1.9717   28.2951   10.9733 C.ar    1  UNL1        0.1401
     10 F           1.6566   27.4319   11.9475 F       1  UNL1       -0.2042
     11 C           0.9834   29.0294   10.3332 C.ar    1  UNL1        0.0296
     12 C           1.3285   29.9544    9.3268 C.ar    1  UNL1        0.0024
     13 C           5.4439   32.2082    8.6403 C.ar    1  UNL1        0.0163
     14 C           6.5833   31.4144    8.7041 C.ar    1  UNL1        0.0037
     15 C           7.6444   31.5401    9.6294 C.ar    1  UNL1        0.0297
     16 C           7.6842   32.6146   10.4781 C.ar    1  UNL1        0.1401
     17 F           8.7613   32.8664   11.2271 F       1  UNL1       -0.2042
     18 C           6.6578   33.5053   10.4248 C.ar    1  UNL1        0.0297
     19 C           5.6027   33.2653    9.5252 C.ar    1  UNL1        0.0037
     20 C           2.5523   34.2758    4.3112 C.3     1  UNL1        0.0062
     21 C           2.1302   32.8384    4.6394 C.3     1  UNL1        0.0387
     22 C           2.3065   31.9625    3.3907 C.3     1  UNL1        0.0062
     23 C           5.0681   32.5545    5.3215 C.2     1  UNL1        0.0776
     24 C           5.7021   31.6911    4.4715 C.2     1  UNL1        0.0216
     25 C           6.6363   31.9531    3.3871 C.3     1  UNL1        0.1364
     26 O           6.7152   30.8135    2.5439 O.3     1  UNL1       -0.3799
     27 H           6.8423   30.0173    3.0856 H       1  UNL1        0.2108
     28 C           6.3104   33.1889    2.5955 C.3     1  UNL1        0.0636
     29 C           7.4791   33.6937    1.7678 C.3     1  UNL1        0.1244
     30 O           8.6155   32.9117    2.1738 O.3     1  UNL1       -0.3838
     31 H           8.6471   32.9218    3.1479 H       1  UNL1        0.2104
     32 C           7.3182   33.5186    0.2515 C.3     1  UNL1        0.1385
     33 C           8.0599   32.3794   -0.3805 C.2     1  UNL1        0.3163
     34 O           9.1509   32.4754   -0.9715 O.2     1  UNL1       -0.2502
     35 O           7.5062   31.1748   -0.2165 O.3     1  UNL1       -0.4801
     36 H           8.1839   30.5269   -0.5049 H       1  UNL1        0.2951
@<TRIPOS>BOND
     1    20    21    1
     2    21    22    1
     3    21     1    1
     4     1     2   ar
     5     1     5   ar
     6     2     3   ar
     7     3     6    1
     8     3     4   ar
     9     6     7   ar
    10     6    12   ar
    11     7     8   ar
    12     8     9   ar
    13     9    10    1
    14     9    11   ar
    15    11    12   ar
    16     4    13    1
    17     4     5   ar
    18    13    14   ar
    19    13    19   ar
    20    14    15   ar
    21    15    16   ar
    22    16    17    1
    23    16    18   ar
    24    18    19   ar
    25     5    23    1
    26    23    24    2
    27    24    25    1
    28    25    26    1
    29    25    28    1
    30    26    27    1
    31    28    29    1
    32    29    30    1
    33    29    32    1
    34    30    31    1
    35    32    33    1
    36    33    34    2
    37    33    35    1
    38    35    36    1



#	Name:			CHEMBL2220442
#	Creating user name:	trannguyen
#	Creation time:		Fri Mar 18 16:33:25 2022


#	Modifying user name:	trannguyen
#	Modification time:	Fri Mar 18 16:33:25 2022

@<TRIPOS>MOLECULE
CHEMBL2220442
 33 35 0 0 0
SMALL
GASTEIGER

@<TRIPOS>ATOM
      1 N           3.9102   32.5609    5.4569 N.ar    1  UNL1       -0.3291
      2 C           4.0421   32.5660    6.8417 C.ar    1  UNL1        0.0596
      3 C           5.3966   32.4689    7.1488 C.ar    1  UNL1        0.0172
      4 C           6.1096   32.4467    5.9066 C.ar    1  UNL1        0.0172
      5 C           7.4807   32.3431    5.5687 C.ar    1  UNL1        0.0015
      6 C           7.8898   32.4207    4.2359 C.ar    1  UNL1        0.0001
      7 C           6.9527   32.5919    3.2306 C.ar    1  UNL1        0.0015
      8 C           5.5894   32.6486    3.5294 C.ar    1  UNL1        0.0172
      9 C           5.1725   32.5630    4.8726 C.ar    1  UNL1        0.0598
     10 C           5.9347   32.4403    8.5148 C.ar    1  UNL1        0.0016
     11 C           6.2732   31.2167    9.1155 C.ar    1  UNL1        0.0024
     12 C           6.7955   31.1758   10.4118 C.ar    1  UNL1        0.0296
     13 C           7.0087   32.3610   11.1026 C.ar    1  UNL1        0.1401
     14 F           7.5296   32.3227   12.3359 F       1  UNL1       -0.2042
     15 C           6.6889   33.5844   10.5312 C.ar    1  UNL1        0.0296
     16 C           6.1353   33.6218    9.2483 C.ar    1  UNL1        0.0024
     17 C           2.2689   33.9801    4.2095 C.3     1  UNL1        0.0245
     18 C           2.6326   32.5889    4.7288 C.3     1  UNL1        0.0856
     19 C           2.5336   31.5143    3.6420 C.3     1  UNL1        0.0245
     20 C           2.8884   32.6458    7.6667 C.2     1  UNL1        0.0150
     21 C           2.2854   31.5258    8.0944 C.2     1  UNL1        0.0041
     22 C           0.9879   31.5357    8.8452 C.3     1  UNL1        0.1350
     23 O           0.0751   32.3982    8.1783 O.3     1  UNL1       -0.3800
     24 H           0.1573   32.2555    7.2201 H       1  UNL1        0.2108
     25 C           0.3698   30.1444    8.9611 C.3     1  UNL1        0.0636
     26 C           0.7148   29.4271   10.2706 C.3     1  UNL1        0.1244
     27 O          -0.3073   28.4390   10.5164 O.3     1  UNL1       -0.3838
     28 H          -1.1600   28.9120   10.5820 H       1  UNL1        0.2104
     29 C           2.0652   28.7084   10.2576 C.3     1  UNL1        0.1385
     30 C           2.1469   27.6091   11.3001 C.2     1  UNL1        0.3163
     31 O           2.3083   26.4390   11.0208 O.2     1  UNL1       -0.2502
     32 O           1.9466   28.0190   12.5754 O.3     1  UNL1       -0.4801
     33 H           1.7385   28.9817   12.6189 H       1  UNL1        0.2951
@<TRIPOS>BOND
     1    17    18    1
     2    18    19    1
     3    18     1    1
     4     1     2   ar
     5     1     9   ar
     6     2    20    1
     7     2     3   ar
     8    20    21    2
     9    21    22    1
    10    22    23    1
    11    22    25    1
    12    23    24    1
    13    25    26    1
    14    26    27    1
    15    26    29    1
    16    27    28    1
    17    29    30    1
    18    30    31    2
    19    30    32    1
    20    32    33    1
    21     3    10    1
    22     3     4   ar
    23    10    11   ar
    24    10    16   ar
    25    11    12   ar
    26    12    13   ar
    27    13    14    1
    28    13    15   ar
    29    15    16   ar
    30     4     5   ar
    31     4     9   ar
    32     5     6   ar
    33     6     7   ar
    34     7     8   ar
    35     8     9   ar



#	Name:			CHEMBL2367472
#	Creating user name:	trannguyen
#	Creation time:		Fri Mar 18 16:33:25 2022


#	Modifying user name:	trannguyen
#	Modification time:	Fri Mar 18 16:33:25 2022

@<TRIPOS>MOLECULE
CHEMBL2367472
 34 36 0 0 0
SMALL
GASTEIGER

@<TRIPOS>ATOM
      1 C           3.8547   32.6976    5.7711 C.ar    1  UNL1        0.0800
      2 N           4.9157   33.3189    5.2679 N.ar    1  UNL1       -0.1681
      3 N           5.9313   33.0586    6.1328 N.ar    1  UNL1       -0.2109
      4 C           5.4506   32.6272    7.3921 C.ar    1  UNL1        0.0856
      5 C           4.1343   32.2417    7.0860 C.ar    1  UNL1        0.0327
      6 C           6.2075   32.6768    8.6940 C.ar    1  UNL1        0.0179
      7 C           6.3555   33.8662    9.4323 C.ar    1  UNL1        0.0038
      8 C           6.9945   33.8955   10.6872 C.ar    1  UNL1        0.0297
      9 C           7.5059   32.7305   11.2317 C.ar    1  UNL1        0.1401
     10 F           8.0769   32.7426   12.4429 F       1  UNL1       -0.2042
     11 C           7.4666   31.5602   10.5047 C.ar    1  UNL1        0.0297
     12 C           6.8742   31.5601    9.2339 C.ar    1  UNL1        0.0038
     13 C           7.2548   33.2769    5.6411 C.ar    1  UNL1        0.1830
     14 C           7.6140   32.6369    4.4546 C.ar    1  UNL1        0.1376
     15 N           8.8068   32.8380    3.8371 N.ar    1  UNL1       -0.2375
     16 C           9.6461   33.6842    4.4691 C.ar    1  UNL1        0.1196
     17 C           9.3210   34.2871    5.6719 C.ar    1  UNL1        0.1212
     18 N           8.1292   34.0959    6.2879 N.ar    1  UNL1       -0.2221
     19 C           2.2236   33.9450    4.2813 C.3     1  UNL1        0.0064
     20 C           2.5769   32.6160    4.9591 C.3     1  UNL1        0.0421
     21 C           2.6315   31.5033    3.8989 C.3     1  UNL1        0.0064
     22 C           3.1403   31.6810    7.9332 C.2     1  UNL1        0.0005
     23 C           2.1399   32.3534    8.5196 C.2     1  UNL1        0.0027
     24 C           1.1895   31.7653    9.5215 C.3     1  UNL1        0.1349
     25 O           0.1553   32.7300    9.7027 O.3     1  UNL1       -0.3800
     26 H          -0.2663   32.4633   10.5527 H       1  UNL1        0.2108
     27 C           0.5510   30.4053    9.2092 C.3     1  UNL1        0.0634
     28 C           0.9289   29.2479   10.1588 C.3     1  UNL1        0.1188
     29 O          -0.3046   28.5532   10.4338 O.3     1  UNL1       -0.3840
     30 H          -0.0947   27.7353   10.9156 H       1  UNL1        0.2104
     31 C           1.9421   28.2354    9.6172 C.3     1  UNL1        0.0710
     32 C           2.7071   27.3974   10.6167 C.2     1  UNL1        0.0528
     33 O           3.9280   27.2004   10.4162 O.co2   1  UNL1       -0.5491
     34 O           2.0868   26.9433   11.6369 O.co2   1  UNL1       -0.5491
@<TRIPOS>UNITY_ATOM_ATTR
33 1
charge -1
@<TRIPOS>BOND
     1    19    20    1
     2    20    21    1
     3    20     1    1
     4     1     2   ar
     5     1     5   ar
     6     2     3   ar
     7     3    13    1
     8     3     4   ar
     9    13    14   ar
    10    13    18   ar
    11    14    15   ar
    12    15    16   ar
    13    16    17   ar
    14    17    18   ar
    15     4     6    1
    16     4     5   ar
    17     6     7   ar
    18     6    12   ar
    19     7     8   ar
    20     8     9   ar
    21     9    10    1
    22     9    11   ar
    23    11    12   ar
    24     5    22    1
    25    22    23    2
    26    23    24    1
    27    24    25    1
    28    24    27    1
    29    25    26    1
    30    27    28    1
    31    28    29    1
    32    28    31    1
    33    29    30    1
    34    31    32    1
    35    32    33   ar
    36    32    34   ar



#	Name:			CHEMBL2367477
#	Creating user name:	trannguyen
#	Creation time:		Fri Mar 18 16:33:25 2022


#	Modifying user name:	trannguyen
#	Modification time:	Fri Mar 18 16:33:25 2022

@<TRIPOS>MOLECULE
CHEMBL2367477
 34 36 0 0 0
SMALL
GASTEIGER

@<TRIPOS>ATOM
      1 C           3.5604   32.1766    5.6557 C.ar    1  UNL1        0.0800
      2 N           4.6498   32.6129    5.0251 N.ar    1  UNL1       -0.1682
      3 N           5.6094   32.8001    5.9783 N.ar    1  UNL1       -0.2125
      4 C           5.1191   32.5215    7.2822 C.ar    1  UNL1        0.0855
      5 C           3.8281   32.0183    7.0450 C.ar    1  UNL1        0.0327
      6 C           5.9021   32.6126    8.5595 C.ar    1  UNL1        0.0179
      7 C           6.5881   31.5088    9.0905 C.ar    1  UNL1        0.0038
      8 C           7.2477   31.5567   10.3283 C.ar    1  UNL1        0.0297
      9 C           7.3306   32.7550   11.0125 C.ar    1  UNL1        0.1401
     10 F           7.9845   32.8120   12.1812 F       1  UNL1       -0.2042
     11 C           6.7476   33.8952   10.4873 C.ar    1  UNL1        0.0297
     12 C           6.0217   33.8164    9.2839 C.ar    1  UNL1        0.0038
     13 C           6.9151   33.2076    5.5035 C.ar    1  UNL1        0.1637
     14 C           7.9749   32.2986    5.6082 C.ar    1  UNL1        0.0388
     15 C           9.2518   32.6785    5.1870 C.ar    1  UNL1        0.0047
     16 C           9.4309   33.9135    4.5825 C.ar    1  UNL1        0.0208
     17 C           8.3283   34.7351    4.4646 C.ar    1  UNL1        0.1006
     18 N           7.1028   34.4252    4.9444 N.ar    1  UNL1       -0.2250
     19 C           1.5185   33.1865    4.5075 C.3     1  UNL1        0.0064
     20 C           2.3142   31.9033    4.8262 C.3     1  UNL1        0.0421
     21 C           2.6371   31.2072    3.4986 C.3     1  UNL1        0.0064
     22 C           2.9507   31.4431    8.0337 C.2     1  UNL1        0.0005
     23 C           2.0693   32.1515    8.7357 C.2     1  UNL1        0.0027
     24 C           1.0488   31.5883    9.7085 C.3     1  UNL1        0.1349
     25 O           0.0555   32.5939    9.8693 O.3     1  UNL1       -0.3800
     26 H          -0.6356   32.4286    9.1966 H       1  UNL1        0.2108
     27 C           0.4409   30.2414    9.2620 C.3     1  UNL1        0.0634
     28 C           0.7401   29.0375   10.1819 C.3     1  UNL1        0.1188
     29 O          -0.4804   28.3448   10.4599 O.3     1  UNL1       -0.3840
     30 H          -0.4325   27.4719   10.0295 H       1  UNL1        0.2104
     31 C           1.7535   28.0320    9.6835 C.3     1  UNL1        0.0710
     32 C           2.4811   27.4668   10.8520 C.2     1  UNL1        0.0528
     33 O           1.9566   27.6258   11.9986 O.co2   1  UNL1       -0.5491
     34 O           3.6993   27.1955   10.7080 O.co2   1  UNL1       -0.5491
@<TRIPOS>UNITY_ATOM_ATTR
33 1
charge -1
@<TRIPOS>BOND
     1    19    20    1
     2    20    21    1
     3    20     1    1
     4     1     2   ar
     5     1     5   ar
     6     2     3   ar
     7     3    13    1
     8     3     4   ar
     9    13    14   ar
    10    13    18   ar
    11    14    15   ar
    12    15    16   ar
    13    16    17   ar
    14    17    18   ar
    15     4     6    1
    16     4     5   ar
    17     6     7   ar
    18     6    12   ar
    19     7     8   ar
    20     8     9   ar
    21     9    10    1
    22     9    11   ar
    23    11    12   ar
    24     5    22    1
    25    22    23    2
    26    23    24    1
    27    24    25    1
    28    24    27    1
    29    25    26    1
    30    27    28    1
    31    28    29    1
    32    28    31    1
    33    29    30    1
    34    31    32    1
    35    32    33   ar
    36    32    34   ar



#	Name:			CHEMBL1163804
#	Creating user name:	trannguyen
#	Creation time:		Fri Mar 18 16:33:25 2022


#	Modifying user name:	trannguyen
#	Modification time:	Fri Mar 18 16:33:25 2022

@<TRIPOS>MOLECULE
CHEMBL1163804
 69 70 0 0 0
SMALL
GASTEIGER

@<TRIPOS>ATOM
      1 CA          9.0694   36.1255    9.3020 C.3     4  TYR4        0.1530
      2 N           8.1572   34.9793    9.6087 N.am    4  TYR4       -0.2967
      3 C           7.2956   34.9659   10.7008 C.2     3  GLY3        0.2428
      4 O           7.1106   35.9642   11.4072 O.2     3  GLY3       -0.2732
      5 H           8.1283   34.1988    8.9642 H       4  TYR4        0.1499
      6 CA          6.4819   33.6639   10.9304 C.3     3  GLY3        0.1757
      7 N           5.7128   33.1758    9.7699 N.am    3  GLY3       -0.2953
      8 C           5.4339   31.8469    9.5932 C.2     2  PHE2        0.2410
      9 O           5.9161   31.0349   10.3985 O.2     2  PHE2       -0.2733
     10 H           5.3680   33.8402    9.0845 H       3  GLY3        0.1499
     11 CA          4.5729   31.4399    8.3467 C.3     2  PHE2        0.1530
     12 N           3.3954   30.6443    8.8082 N.am    2  PHE2       -0.2970
     13 C           2.5114   31.0656    9.7854 C.2     1  ASP1        0.2374
     14 O           2.5761   32.1805   10.3063 O.2     1  ASP1       -0.2736
     15 H           3.4098   29.6514    8.6025 H       2  PHE2        0.1499
     16 CA          1.4355   30.0237   10.2130 C.3     1  ASP1        0.1395
     17 N           0.1521   30.3773    9.5606 N.3     1  ASP1       -0.3146
     18 H1          0.2736   30.3320    8.5454 H       1  ASP1        0.1192
     19 H2         -0.5534   29.6707    9.7821 H       1  ASP1        0.1192
     20 CB          1.8960   28.6062    9.8330 C.3     1  ASP1        0.1341
     21 CG          2.0531   27.7228   11.0286 C.2     1  ASP1        0.3157
     22 OD1         2.0732   28.0773   12.2077 O.2     1  ASP1       -0.2502
     23 OD2         2.2008   26.4286   10.7055 O.3     1  ASP1       -0.4801
     24 HD2         2.2995   25.9466   11.5561 H       1  ASP1        0.2951
     25 CB          4.1103   32.6776    7.5207 C.3     2  PHE2        0.0553
     26 CG          3.3811   32.3707    6.2240 C.ar    2  PHE2       -0.0200
     27 CD1         2.0879   32.8484    5.9910 C.ar    2  PHE2       -0.0042
     28 CE1         1.4204   32.5313    4.8023 C.ar    2  PHE2       -0.0003
     29 CZ          2.0251   31.7168    3.8442 C.ar    2  PHE2       -0.0000
     30 CE2         3.3070   31.2317    4.0632 C.ar    2  PHE2       -0.0003
     31 CD2         3.9858   31.5836    5.2283 C.ar    2  PHE2       -0.0042
     32 N           9.3324   37.2700    7.0431 N.am    5  VAL5       -0.2970
     33 C           8.5122   37.0191    8.1242 C.2     4  TYR4        0.2410
     34 O           7.3515   37.4427    8.1256 O.2     4  TYR4       -0.2733
     35 H          10.2412   36.8314    7.0075 H       5  VAL5        0.1499
     36 CA          8.9621   38.1760    5.9074 C.3     5  VAL5        0.1485
     37 C           8.3543   37.2820    4.7881 C.2     5  VAL5        0.2406
     38 O           7.1726   36.9398    4.7913 O.2     5  VAL5       -0.2733
     39 N           9.2211   37.0061    3.7277 N.am    6  ALA6       -0.2970
     40 H          10.2046   36.9773    3.9721 H       6  ALA6        0.1499
     41 CA          8.7950   36.1801    2.5846 C.3     6  ALA6        0.1486
     42 CB          9.4311   36.6296    1.2643 C.3     6  ALA6        0.0312
     43 C           9.0645   34.6595    2.7764 C.2     6  ALA6        0.2407
     44 O          10.0642   34.2629    3.3755 O.2     6  ALA6       -0.2733
     45 N           8.0799   33.7980    2.3320 N.am    7  GLU7       -0.2954
     46 H           7.2062   34.2141    2.0302 H       7  GLU7        0.1499
     47 CA          8.0838   32.3341    2.5851 C.3     7  GLU7        0.1718
     48 C           7.7411   31.5656    1.2472 C.2     7  GLU7        0.3318
     49 O           7.7357   32.0598    0.1531 O.2     7  GLU7       -0.2485
     50 OXT         7.4142   30.2954    1.4611 O.3     7  GLU7       -0.4791
     51 HXT         7.1425   30.0109    0.5616 H       7  GLU7        0.2951
     52 CB          7.0938   32.0325    3.7362 C.3     7  GLU7        0.0427
     53 CG          7.6497   32.2372    5.1458 C.3     7  GLU7        0.1116
     54 CD          7.0938   33.4946    5.7713 C.2     7  GLU7        0.3139
     55 OE1         7.2989   33.8318    6.9322 O.2     7  GLU7       -0.2503
     56 OE2         6.3123   34.2179    4.9390 O.3     7  GLU7       -0.4802
     57 HE2         6.2159   33.8555    4.0397 H       7  GLU7        0.2951
     58 CG1        11.4120   38.5189    6.2674 C.3     5  VAL5        0.0022
     59 CB         10.1963   39.0462    5.4966 C.3     5  VAL5        0.0269
     60 CG2        10.1911   40.5508    5.7680 C.3     5  VAL5        0.0022
     61 CB         10.5413   35.6390    9.0932 C.3     4  TYR4        0.0553
     62 CG         10.7416   34.1599    8.8241 C.ar    4  TYR4       -0.0198
     63 CD1        10.6863   33.6077    7.5395 C.ar    4  TYR4       -0.0011
     64 CE1        10.7424   32.2145    7.3473 C.ar    4  TYR4        0.0363
     65 CZ         10.8807   31.3701    8.4374 C.ar    4  TYR4        0.1337
     66 OH         10.8136   30.0145    8.3442 O.3     4  TYR4       -0.5055
     67 CE2        11.0800   31.9060    9.6894 C.ar    4  TYR4        0.0363
     68 CD2        10.9940   33.2881    9.8839 C.ar    4  TYR4       -0.0011
     69 HH         10.7421   29.7759    7.4069 H       4  TYR4        0.2922
@<TRIPOS>BOND
     1    58    59    1
     2    59    60    1
     3    36    32    1
     4    36    37    1
     5    36    59    1
     6    32    33   am
     7    32    35    1
     8    33    34    2
     9     1    61    1
    10     1     2    1
    11     1    33    1
    12    61    62    1
    13    62    63   ar
    14    62    68   ar
    15    63    64   ar
    16    64    65   ar
    17    65    66    1
    18    65    67   ar
    19    66    69    1
    20    67    68   ar
    21     2     3   am
    22     2     5    1
    23     3     4    2
    24     3     6    1
    25     6     7    1
    26     7     8   am
    27     7    10    1
    28     8     9    2
    29    11    25    1
    30    11    12    1
    31    11     8    1
    32    25    26    1
    33    26    27   ar
    34    26    31   ar
    35    27    28   ar
    36    28    29   ar
    37    29    30   ar
    38    30    31   ar
    39    12    13   am
    40    12    15    1
    41    13    14    2
    42    13    16    1
    43    16    17    1
    44    16    20    1
    45    17    18    1
    46    17    19    1
    47    20    21    1
    48    21    22    2
    49    21    23    1
    50    23    24    1
    51    37    38    2
    52    37    39   am
    53    39    41    1
    54    39    40    1
    55    41    42    1
    56    41    43    1
    57    43    44    2
    58    43    45   am
    59    45    47    1
    60    45    46    1
    61    47    52    1
    62    47    48    1
    63    52    53    1
    64    53    54    1
    65    54    55    2
    66    54    56    1
    67    56    57    1
    68    48    49    2
    69    48    50    1
    70    50    51    1



#	Name:			CHEMBL64962
#	Creating user name:	trannguyen
#	Creation time:		Fri Mar 18 16:33:25 2022


#	Modifying user name:	trannguyen
#	Modification time:	Fri Mar 18 16:33:25 2022

@<TRIPOS>MOLECULE
CHEMBL64962
 34 36 0 0 0
SMALL
GASTEIGER

@<TRIPOS>ATOM
      1 C           5.9961   32.1833    5.4136 C.ar    1  UNL1        0.0760
      2 N           7.3238   32.1816    5.4841 N.ar    1  UNL1       -0.1698
      3 N           7.6076   32.2140    6.7983 N.ar    1  UNL1       -0.2303
      4 C           6.5515   32.8335    7.5141 C.ar    1  UNL1        0.0799
      5 C           5.4183   32.5591    6.6970 C.ar    1  UNL1        0.0108
      6 C           6.7364   33.7527    8.6976 C.ar    1  UNL1        0.0176
      7 C           7.7795   34.6975    8.7037 C.ar    1  UNL1        0.0038
      8 C           8.0038   35.5528    9.8046 C.ar    1  UNL1        0.0297
      9 C           7.1456   35.5329   10.8936 C.ar    1  UNL1        0.1401
     10 F           7.2682   36.4360   11.8777 F       1  UNL1       -0.2042
     11 C           6.1302   34.6095   10.9446 C.ar    1  UNL1        0.0297
     12 C           5.9725   33.7122    9.8803 C.ar    1  UNL1        0.0038
     13 C           8.8903   31.7289    7.1872 C.ar    1  UNL1        0.0828
     14 C          10.0354   32.1626    6.4985 C.ar    1  UNL1        0.0191
     15 C          11.3067   31.8040    6.9532 C.ar    1  UNL1        0.0015
     16 C          11.4399   31.0127    8.0919 C.ar    1  UNL1        0.0001
     17 C          10.3047   30.4994    8.7145 C.ar    1  UNL1        0.0015
     18 C           9.0360   30.7933    8.2091 C.ar    1  UNL1        0.0191
     19 C           6.3025   31.0992    3.0989 C.3     1  UNL1        0.0063
     20 C           5.3768   31.8678    4.0500 C.3     1  UNL1        0.0418
     21 C           4.0555   31.0660    4.1731 C.3     1  UNL1        0.0063
     22 C           3.9331   32.8010    6.8715 C.3     1  UNL1        0.0316
     23 C           2.9754   31.8200    7.5647 C.3     1  UNL1        0.0341
     24 C           1.9998   32.2360    8.6974 C.3     1  UNL1        0.1133
     25 O           0.6872   32.1789    8.0742 O.3     1  UNL1       -0.3844
     26 H           0.2619   31.3322    8.2950 H       1  UNL1        0.2103
     27 C           1.9301   31.3912   10.0109 C.3     1  UNL1        0.0588
     28 C           2.5123   29.9773    9.9022 C.3     1  UNL1        0.1185
     29 O           3.6885   29.8580   10.6900 O.3     1  UNL1       -0.3840
     30 H           3.5096   29.1795   11.3780 H       1  UNL1        0.2104
     31 C           1.6147   28.7591   10.0385 C.3     1  UNL1        0.0710
     32 C           2.1915   27.6423   10.8673 C.2     1  UNL1        0.0528
     33 O           1.8825   27.6807   12.1304 O.co2   1  UNL1       -0.5491
     34 O           2.9483   26.9026   10.2341 O.co2   1  UNL1       -0.5491
@<TRIPOS>UNITY_ATOM_ATTR
33 1
charge -1
@<TRIPOS>BOND
     1    19    20    1
     2    20    21    1
     3    20     1    1
     4     1     2   ar
     5     1     5   ar
     6     2     3   ar
     7     3    13    1
     8     3     4   ar
     9    13    14   ar
    10    13    18   ar
    11    14    15   ar
    12    15    16   ar
    13    16    17   ar
    14    17    18   ar
    15     4     6    1
    16     4     5   ar
    17     6     7   ar
    18     6    12   ar
    19     7     8   ar
    20     8     9   ar
    21     9    10    1
    22     9    11   ar
    23    11    12   ar
    24     5    22    1
    25    22    23    1
    26    23    24    1
    27    24    25    1
    28    24    27    1
    29    25    26    1
    30    27    28    1
    31    28    29    1
    32    28    31    1
    33    29    30    1
    34    31    32    1
    35    32    33   ar
    36    32    34   ar



#	Name:			CHEMBL65037
#	Creating user name:	trannguyen
#	Creation time:		Fri Mar 18 16:33:25 2022


#	Modifying user name:	trannguyen
#	Modification time:	Fri Mar 18 16:33:25 2022

@<TRIPOS>MOLECULE
CHEMBL65037
 34 36 0 0 0
SMALL
GASTEIGER

@<TRIPOS>ATOM
      1 C           6.5406   32.9945    9.4574 C.ar    1  UNL1        0.0761
      2 N           5.6053   32.4066   10.2068 N.ar    1  UNL1       -0.1685
      3 N           4.7943   31.7644    9.3369 N.ar    1  UNL1       -0.2128
      4 C           4.9172   32.3274    8.0426 C.ar    1  UNL1        0.0816
      5 C           6.2165   32.8920    8.0511 C.ar    1  UNL1        0.0108
      6 C           3.8176   32.2971    7.0281 C.ar    1  UNL1        0.0176
      7 C           2.9712   31.1928    6.8554 C.ar    1  UNL1        0.0038
      8 C           1.9264   31.2064    5.9124 C.ar    1  UNL1        0.0297
      9 C           1.7154   32.3253    5.1215 C.ar    1  UNL1        0.1401
     10 F           0.6678   32.3698    4.2870 F       1  UNL1       -0.2042
     11 C           2.5922   33.3924    5.1842 C.ar    1  UNL1        0.0297
     12 C           3.6338   33.3745    6.1260 C.ar    1  UNL1        0.0038
     13 C           3.9684   30.6740    9.8166 C.ar    1  UNL1        0.1637
     14 C           4.4756   29.3756    9.8495 C.ar    1  UNL1        0.0388
     15 C           3.6303   28.3238   10.2167 C.ar    1  UNL1        0.0047
     16 C           2.3213   28.5918   10.5962 C.ar    1  UNL1        0.0208
     17 C           1.9150   29.9132   10.6207 C.ar    1  UNL1        0.1006
     18 N           2.7003   30.9493   10.2436 N.ar    1  UNL1       -0.2250
     19 C           7.4712   35.1087   10.5228 C.3     1  UNL1        0.0063
     20 C           7.7278   33.6418   10.1671 C.3     1  UNL1        0.0418
     21 C           8.1363   32.9121   11.4659 C.3     1  UNL1        0.0063
     22 C           7.1345   33.2813    6.8968 C.3     1  UNL1        0.0316
     23 C           7.2908   32.2986    5.7024 C.3     1  UNL1        0.0341
     24 C           6.9005   32.9533    4.3462 C.3     1  UNL1        0.1133
     25 O           8.0336   33.7507    3.9457 O.3     1  UNL1       -0.3844
     26 H           8.1184   33.7110    2.9768 H       1  UNL1        0.2103
     27 C           6.5183   32.0269    3.1472 C.3     1  UNL1        0.0588
     28 C           7.5846   31.7468    2.0676 C.3     1  UNL1        0.1185
     29 O           7.3754   30.4199    1.5642 O.3     1  UNL1       -0.3840
     30 H           7.1016   30.4892    0.6262 H       1  UNL1        0.2104
     31 C           7.6317   32.7396    0.8867 C.3     1  UNL1        0.0710
     32 C           8.2015   32.0625   -0.3264 C.2     1  UNL1        0.0528
     33 O           7.4711   31.5012   -1.1563 O.co2   1  UNL1       -0.5491
     34 O           9.4795   31.8649   -0.3189 O.co2   1  UNL1       -0.5491
@<TRIPOS>UNITY_ATOM_ATTR
33 1
charge -1
@<TRIPOS>BOND
     1    19    20    1
     2    20    21    1
     3    20     1    1
     4     1     2   ar
     5     1     5   ar
     6     2     3   ar
     7     3    13    1
     8     3     4   ar
     9    13    14   ar
    10    13    18   ar
    11    14    15   ar
    12    15    16   ar
    13    16    17   ar
    14    17    18   ar
    15     4     6    1
    16     4     5   ar
    17     6     7   ar
    18     6    12   ar
    19     7     8   ar
    20     8     9   ar
    21     9    10    1
    22     9    11   ar
    23    11    12   ar
    24     5    22    1
    25    22    23    1
    26    23    24    1
    27    24    25    1
    28    24    27    1
    29    25    26    1
    30    27    28    1
    31    28    29    1
    32    28    31    1
    33    29    30    1
    34    31    32    1
    35    32    33   ar
    36    32    34   ar



#	Name:			CHEMBL99838
#	Creating user name:	trannguyen
#	Creation time:		Fri Mar 18 16:33:25 2022


#	Modifying user name:	trannguyen
#	Modification time:	Fri Mar 18 16:33:25 2022

@<TRIPOS>MOLECULE
CHEMBL99838
 35 37 0 0 0
SMALL
GASTEIGER

@<TRIPOS>ATOM
      1 C           3.7594   32.1095    5.8181 C.ar    1  UNL1        0.0111
      2 C           4.6521   32.7498    4.9270 C.ar    1  UNL1       -0.0013
      3 C           5.9417   33.1201    5.2797 C.ar    1  UNL1       -0.0004
      4 C           6.2625   32.9924    6.6275 C.ar    1  UNL1       -0.0013
      5 C           5.3938   32.5883    7.6532 C.ar    1  UNL1        0.0115
      6 C           4.1173   32.0693    7.2319 C.ar    1  UNL1        0.1306
      7 C           6.9392   33.6124    4.2957 C.ar    1  UNL1       -0.0000
      8 C           8.2564   33.9451    4.6798 C.ar    1  UNL1       -0.0000
      9 C           9.2095   34.3691    3.7495 C.ar    1  UNL1       -0.0000
     10 C           8.8707   34.4702    2.4065 C.ar    1  UNL1        0.0000
     11 C           7.5775   34.1641    1.9987 C.ar    1  UNL1       -0.0000
     12 C           6.6240   33.7485    2.9331 C.ar    1  UNL1       -0.0000
     13 C           1.2903   32.3858    4.9087 C.3     1  UNL1        0.0048
     14 C           2.5189   31.4732    5.1137 C.3     1  UNL1        0.0253
     15 C           2.8519   30.8429    3.7156 C.3     1  UNL1        0.0048
     16 C           5.9144   32.8978    9.0853 C.3     1  UNL1        0.0294
     17 C           6.6592   31.8549    9.9788 C.3     1  UNL1        0.0045
     18 C           7.8332   31.1528    9.3129 C.3     1  UNL1        0.0003
     19 C           8.9886   32.0889    8.9980 C.3     1  UNL1        0.0000
     20 C           9.5232   32.7965   10.2311 C.3     1  UNL1        0.0000
     21 C           8.4096   33.4384   11.0462 C.3     1  UNL1        0.0000
     22 C           7.2370   32.4884   11.2800 C.3     1  UNL1        0.0003
     23 O           3.2445   31.3823    8.0632 O.3     1  UNL1       -0.4735
     24 C           2.3896   32.1176    9.0004 C.3     1  UNL1        0.2344
     25 C           1.0474   31.3695    9.2945 C.3     1  UNL1        0.1564
     26 O           0.1357   32.0104    8.3721 O.3     1  UNL1       -0.3806
     27 H          -0.5651   31.3556    8.2214 H       1  UNL1        0.2105
     28 C           1.1076   29.7947    9.1608 C.3     1  UNL1        0.0627
     29 C           0.9981   28.9190   10.4611 C.3     1  UNL1        0.1186
     30 O          -0.1809   28.1161   10.4040 O.3     1  UNL1       -0.3840
     31 H           0.0475   27.2519   10.7988 H       1  UNL1        0.2104
     32 C           2.2026   28.0841   10.9261 C.3     1  UNL1        0.0710
     33 C           3.6156   28.4905   10.5008 C.2     1  UNL1        0.0528
     34 O           4.2014   27.6580    9.6969 O.co2   1  UNL1       -0.5491
     35 O           4.0051   29.5873   10.8240 O.co2   1  UNL1       -0.5491
@<TRIPOS>UNITY_ATOM_ATTR
34 1
charge -1
@<TRIPOS>BOND
     1    13    14    1
     2    14    15    1
     3    14     1    1
     4     1     2   ar
     5     1     6   ar
     6     2     3   ar
     7     3     7    1
     8     3     4   ar
     9     7     8   ar
    10     7    12   ar
    11     8     9   ar
    12     9    10   ar
    13    10    11   ar
    14    11    12   ar
    15     4     5   ar
    16     5    16    1
    17     5     6   ar
    18    16    17    1
    19    17    18    1
    20    17    22    1
    21    18    19    1
    22    19    20    1
    23    20    21    1
    24    21    22    1
    25     6    23    1
    26    23    24    1
    27    24    25    1
    28    25    26    1
    29    25    28    1
    30    26    27    1
    31    28    29    1
    32    29    30    1
    33    29    32    1
    34    30    31    1
    35    32    33    1
    36    33    34   ar
    37    33    35   ar



#	Name:			CHEMBL100165
#	Creating user name:	trannguyen
#	Creation time:		Fri Mar 18 16:33:25 2022


#	Modifying user name:	trannguyen
#	Modification time:	Fri Mar 18 16:33:25 2022

@<TRIPOS>MOLECULE
CHEMBL100165
 32 33 0 0 0
SMALL
GASTEIGER

@<TRIPOS>ATOM
      1 C           3.4555   30.1434    9.6419 C.ar    1  UNL1       -0.0226
      2 C           2.9975   30.8387    8.5345 C.ar    1  UNL1       -0.0013
      3 C           3.7638   31.7625    7.7575 C.ar    1  UNL1        0.0334
      4 C           4.9815   32.2822    8.3363 C.ar    1  UNL1        0.1345
      5 C           5.5493   31.5326    9.4260 C.ar    1  UNL1        0.0111
      6 C           4.7475   30.4843   10.0452 C.ar    1  UNL1       -0.0056
      7 C           3.3105   31.8623    6.3127 C.ar    1  UNL1        0.0030
      8 C           1.9672   32.2425    5.9754 C.ar    1  UNL1        0.0024
      9 C           1.4596   32.2359    4.6752 C.ar    1  UNL1        0.0296
     10 C           2.2686   31.7862    3.6590 C.ar    1  UNL1        0.1401
     11 F           1.7853   31.7251    2.4127 F       1  UNL1       -0.2042
     12 C           3.5627   31.3638    3.9300 C.ar    1  UNL1        0.0296
     13 C           4.0800   31.4157    5.2367 C.ar    1  UNL1        0.0024
     14 C           1.1771   28.9256    9.6953 C.3     1  UNL1        0.0047
     15 C           2.6293   28.9839   10.2284 C.3     1  UNL1        0.0223
     16 C           3.2563   27.6014    9.9656 C.3     1  UNL1        0.0047
     17 C           7.0221   31.5326    9.9446 C.3     1  UNL1        0.0253
     18 C           8.2322   31.1520    9.0681 C.3     1  UNL1        0.0048
     19 C           7.4483   32.7879   10.7376 C.3     1  UNL1        0.0048
     20 O           5.5548   33.4746    7.8086 O.3     1  UNL1       -0.4732
     21 C           6.6200   33.1896    6.8590 C.3     1  UNL1        0.2344
     22 C           6.8046   33.6927    5.3964 C.3     1  UNL1        0.1564
     23 O           7.6123   34.8675    5.3729 O.3     1  UNL1       -0.3806
     24 H           7.1105   35.5951    4.9771 H       1  UNL1        0.2105
     25 C           7.5334   32.5745    4.5395 C.3     1  UNL1        0.0627
     26 C           7.7616   32.7918    3.0141 C.3     1  UNL1        0.1186
     27 O           8.8634   33.6581    2.7805 O.3     1  UNL1       -0.3840
     28 H           9.2061   33.4969    1.8864 H       1  UNL1        0.2104
     29 C           7.7508   31.5849    2.0790 C.3     1  UNL1        0.0710
     30 C           8.1974   31.5608    0.6620 C.2     1  UNL1        0.0528
     31 O           7.4302   31.2346   -0.2278 O.co2   1  UNL1       -0.5491
     32 O           9.3882   32.0208    0.3950 O.co2   1  UNL1       -0.5491
@<TRIPOS>UNITY_ATOM_ATTR
31 1
charge -1
@<TRIPOS>BOND
     1    14    15    1
     2    15    16    1
     3    15     1    1
     4     1     2   ar
     5     1     6   ar
     6     2     3   ar
     7     3     7    1
     8     3     4   ar
     9     7     8   ar
    10     7    13   ar
    11     8     9   ar
    12     9    10   ar
    13    10    11    1
    14    10    12   ar
    15    12    13   ar
    16     4    20    1
    17     4     5   ar
    18    20    21    1
    19    21    22    1
    20    22    23    1
    21    22    25    1
    22    23    24    1
    23    25    26    1
    24    26    27    1
    25    26    29    1
    26    27    28    1
    27    29    30    1
    28    30    31   ar
    29    30    32   ar
    30     5    17    1
    31     5     6   ar
    32    17    18    1
    33    17    19    1



#	Name:			CHEMBL101497
#	Creating user name:	trannguyen
#	Creation time:		Fri Mar 18 16:33:25 2022


#	Modifying user name:	trannguyen
#	Modification time:	Fri Mar 18 16:33:25 2022

@<TRIPOS>MOLECULE
CHEMBL101497
 33 35 0 0 0
SMALL
GASTEIGER

@<TRIPOS>ATOM
      1 C           4.3623   32.7185    5.0256 C.ar    1  UNL1        0.0144
      2 C           4.4868   32.5386    6.4417 C.ar    1  UNL1        0.1521
      3 C           5.7874   32.7483    7.0066 C.ar    1  UNL1        0.1147
      4 N           6.8549   33.1614    6.2624 N.ar    1  UNL1       -0.2423
      5 C           6.7247   33.3816    4.9505 C.ar    1  UNL1        0.0812
      6 C           7.8451   33.8464    4.2578 C.ar    1  UNL1        0.0191
      7 C           7.8414   34.0920    2.8828 C.ar    1  UNL1        0.0015
      8 C           6.6994   33.8296    2.1618 C.ar    1  UNL1        0.0001
      9 C           5.5745   33.3625    2.8358 C.ar    1  UNL1        0.0013
     10 C           5.5243   33.1551    4.2561 C.ar    1  UNL1        0.0166
     11 C           6.1715   32.5556    8.4583 C.ar    1  UNL1        0.0208
     12 C           6.3311   33.6263    9.3556 C.ar    1  UNL1        0.0039
     13 C           6.7262   33.4501   10.6904 C.ar    1  UNL1        0.0297
     14 C           6.9611   32.1745   11.1710 C.ar    1  UNL1        0.1401
     15 F           7.3062   31.9980   12.4539 F       1  UNL1       -0.2042
     16 C           6.8291   31.0792   10.3321 C.ar    1  UNL1        0.0297
     17 C           6.4519   31.2710    8.9894 C.ar    1  UNL1        0.0039
     18 C           3.0198   30.8247    4.0770 C.3     1  UNL1        0.0048
     19 C           3.1386   32.3534    4.1756 C.3     1  UNL1        0.0254
     20 C           1.9945   33.3884    4.1720 C.3     1  UNL1        0.0048
     21 O           3.5771   32.1064    7.3698 O.3     1  UNL1       -0.4717
     22 C           2.1707   32.2483    7.4551 C.3     1  UNL1        0.2344
     23 C           1.3652   31.6052    8.6193 C.3     1  UNL1        0.1564
     24 O           0.0736   32.2969    8.6189 O.3     1  UNL1       -0.3806
     25 H          -0.3129   32.1903    7.7337 H       1  UNL1        0.2105
     26 C           1.0021   30.1374    8.9626 C.3     1  UNL1        0.0627
     27 C           1.1872   29.5201   10.3649 C.3     1  UNL1        0.1186
     28 O           0.1309   28.5653   10.5632 O.3     1  UNL1       -0.3840
     29 H           0.4070   27.9853   11.2971 H       1  UNL1        0.2104
     30 C           2.5164   28.7575   10.5336 C.3     1  UNL1        0.0710
     31 C           2.5178   27.2407   10.6861 C.2     1  UNL1        0.0528
     32 O           2.1653   26.7858   11.7746 O.co2   1  UNL1       -0.5491
     33 O           2.9938   26.6043    9.6593 O.co2   1  UNL1       -0.5491
@<TRIPOS>UNITY_ATOM_ATTR
32 1
charge -1
@<TRIPOS>BOND
     1    18    19    1
     2    19    20    1
     3    19     1    1
     4     1     2   ar
     5     1    10   ar
     6     2    21    1
     7     2     3   ar
     8    21    22    1
     9    22    23    1
    10    23    24    1
    11    23    26    1
    12    24    25    1
    13    26    27    1
    14    27    28    1
    15    27    30    1
    16    28    29    1
    17    30    31    1
    18    31    32   ar
    19    31    33   ar
    20     3    11    1
    21     3     4   ar
    22    11    12   ar
    23    11    17   ar
    24    12    13   ar
    25    13    14   ar
    26    14    15    1
    27    14    16   ar
    28    16    17   ar
    29     4     5   ar
    30     5     6   ar
    31     5    10   ar
    32     6     7   ar
    33     7     8   ar
    34     8     9   ar
    35     9    10   ar



#	Name:			CHEMBL102168
#	Creating user name:	trannguyen
#	Creation time:		Fri Mar 18 16:33:25 2022


#	Modifying user name:	trannguyen
#	Modification time:	Fri Mar 18 16:33:25 2022

@<TRIPOS>MOLECULE
CHEMBL102168
 37 39 0 0 0
SMALL
GASTEIGER

@<TRIPOS>ATOM
      1 C           3.9032   32.5595    5.4429 C.ar    1  UNL1        0.0119
      2 C           3.2785   32.5720    6.7112 C.ar    1  UNL1        0.0052
      3 C           3.9931   32.4402    7.8842 C.ar    1  UNL1        0.0293
      4 C           5.3729   32.2784    7.7988 C.ar    1  UNL1        0.0095
      5 C           6.1730   32.4425    6.6254 C.ar    1  UNL1        0.0342
      6 C           5.3979   32.6100    5.3824 C.ar    1  UNL1        0.1346
      7 C           7.7128   32.2706    6.8873 C.ar    1  UNL1        0.0031
      8 C           8.2329   31.1129    7.5552 C.ar    1  UNL1        0.0024
      9 C           9.5866   30.7323    7.5698 C.ar    1  UNL1        0.0296
     10 C          10.5171   31.5609    6.9941 C.ar    1  UNL1        0.1401
     11 F          11.8040   31.1842    6.9468 F       1  UNL1       -0.2042
     12 C          10.1110   32.7825    6.4866 C.ar    1  UNL1        0.0296
     13 C           8.7321   33.1333    6.4586 C.ar    1  UNL1        0.0024
     14 C           3.0433   30.8269    3.6977 C.3     1  UNL1        0.0048
     15 C           2.8564   32.2544    4.2938 C.3     1  UNL1        0.0253
     16 C           1.3622   32.4694    4.5294 C.3     1  UNL1        0.0048
     17 S           3.1511   32.2089    9.4471 S.3     1  UNL1       -0.0869
     18 C           3.0168   30.4454    9.7271 C.ar    1  UNL1        0.0296
     19 C           1.7248   29.8800    9.7129 C.ar    1  UNL1        0.0088
     20 C           1.5301   28.5051    9.8985 C.ar    1  UNL1        0.0301
     21 C           2.6311   27.6838   10.0862 C.ar    1  UNL1        0.1402
     22 F           2.4559   26.3662   10.2586 F       1  UNL1       -0.2042
     23 C           3.9141   28.2167   10.1130 C.ar    1  UNL1        0.0301
     24 C           4.1053   29.5965    9.9530 C.ar    1  UNL1        0.0088
     25 O           6.1430   32.8047    4.1831 O.3     1  UNL1       -0.4732
     26 C           6.7557   31.6588    3.5712 C.3     1  UNL1        0.2344
     27 C           7.5770   31.5731    2.2705 C.3     1  UNL1        0.1564
     28 O           7.2102   30.3083    1.6150 O.3     1  UNL1       -0.3806
     29 H           7.6127   30.3364    0.7219 H       1  UNL1        0.2105
     30 C           7.4592   32.6268    1.2058 C.3     1  UNL1        0.0627
     31 C           8.4084   32.5426    0.0322 C.3     1  UNL1        0.1186
     32 O           9.5040   31.6885    0.3418 O.3     1  UNL1       -0.3840
     33 H           9.3073   30.8638   -0.1666 H       1  UNL1        0.2104
     34 C           7.7824   32.2375   -1.3222 C.3     1  UNL1        0.0710
     35 C           8.3579   33.0527   -2.4514 C.2     1  UNL1        0.0528
     36 O           7.5731   33.7446   -3.1254 O.co2   1  UNL1       -0.5491
     37 O           9.6719   32.8880   -2.5878 O.co2   1  UNL1       -0.5491
@<TRIPOS>UNITY_ATOM_ATTR
36 1
charge -1
@<TRIPOS>BOND
     1    14    15    1
     2    15    16    1
     3    15     1    1
     4     1     2   ar
     5     1     6   ar
     6     2     3   ar
     7     3    17    1
     8     3     4   ar
     9    17    18    1
    10    18    19   ar
    11    18    24   ar
    12    19    20   ar
    13    20    21   ar
    14    21    22    1
    15    21    23   ar
    16    23    24   ar
    17     4     5   ar
    18     5     7    1
    19     5     6   ar
    20     7     8   ar
    21     7    13   ar
    22     8     9   ar
    23     9    10   ar
    24    10    11    1
    25    10    12   ar
    26    12    13   ar
    27     6    25    1
    28    25    26    1
    29    26    27    1
    30    27    28    1
    31    27    30    1
    32    28    29    1
    33    30    31    1
    34    31    32    1
    35    31    34    1
    36    32    33    1
    37    34    35    1
    38    35    36   ar
    39    35    37   ar



#	Name:			CHEMBL151437
#	Creating user name:	trannguyen
#	Creation time:		Fri Mar 18 16:33:25 2022


#	Modifying user name:	trannguyen
#	Modification time:	Fri Mar 18 16:33:25 2022

@<TRIPOS>MOLECULE
CHEMBL151437
 33 33 0 0 0
SMALL
GASTEIGER

@<TRIPOS>ATOM
      1 C           6.5604   32.6758    4.6220 C.3     1  UNL1        0.0036
      2 C           5.9863   31.7903    3.5070 C.3     1  UNL1        0.0001
      3 C           4.7458   31.0057    3.8392 C.3     1  UNL1        0.0000
      4 C           3.7141   31.8521    4.5720 C.3     1  UNL1        0.0001
      5 C           3.2104   33.0161    3.7067 C.3     1  UNL1        0.0000
      6 C           4.2888   32.2596    5.9474 C.3     1  UNL1        0.0037
      7 C           5.6363   33.0424    5.8505 C.3     1  UNL1        0.0439
      8 C           7.1020   33.9643    3.9514 C.3     1  UNL1        0.0001
      9 C           7.4806   34.5391    1.5164 C.3     1  UNL1        0.0000
     10 C           7.9596   33.7196    2.7062 C.3     1  UNL1        0.0000
     11 C           3.2210   32.9882    6.8203 C.3     1  UNL1        0.0026
     12 C           2.7387   32.0889    7.9725 C.3     1  UNL1        0.0293
     13 C           1.2785   31.6356    7.9076 C.3     1  UNL1        0.1130
     14 O           1.1513   30.6713    6.8593 O.3     1  UNL1       -0.3844
     15 H           1.5539   31.0399    6.0531 H       1  UNL1        0.2103
     16 C           0.7748   30.9760    9.1905 C.3     1  UNL1        0.0590
     17 C           1.8624   30.1771    9.9375 C.3     1  UNL1        0.1241
     18 O           1.8869   30.6212   11.3062 O.3     1  UNL1       -0.3838
     19 H           1.8747   31.5993   11.2941 H       1  UNL1        0.2104
     20 C           1.5726   28.6709    9.9143 C.3     1  UNL1        0.1385
     21 C           2.3635   27.8576   10.9124 C.2     1  UNL1        0.3163
     22 O           3.3659   27.2643   10.6177 O.2     1  UNL1       -0.2502
     23 O           1.8210   27.7268   12.1230 O.3     1  UNL1       -0.4801
     24 H           0.9467   28.2141   12.1917 H       1  UNL1        0.2951
     25 C           6.4433   32.8714    7.1867 C.3     1  UNL1        0.2083
     26 O           7.4437   31.8423    7.0219 O.3     1  UNL1       -0.4485
     27 C           8.7385   32.1325    7.3445 C.2     1  UNL1        0.3159
     28 O           9.5172   32.7262    6.6077 O.2     1  UNL1       -0.2501
     29 C           9.1340   31.5032    8.6974 C.3     1  UNL1        0.0896
     30 C           7.8779   30.9391    9.4000 C.3     1  UNL1        0.0111
     31 C          10.1321   30.3433    8.5115 C.3     1  UNL1        0.0111
     32 C           9.6726   32.5997    9.6541 C.3     1  UNL1        0.0106
     33 C           8.8386   33.8517    9.8191 C.3     1  UNL1        0.0006
@<TRIPOS>BOND
     1     9    10    1
     2    10     8    1
     3     1     2    1
     4     1     7    1
     5     1     8    1
     6     2     3    1
     7     3     4    1
     8     4     5    1
     9     4     6    1
    10     6    11    1
    11     6     7    1
    12    11    12    1
    13    12    13    1
    14    13    14    1
    15    13    16    1
    16    14    15    1
    17    16    17    1
    18    17    18    1
    19    17    20    1
    20    18    19    1
    21    20    21    1
    22    21    22    2
    23    21    23    1
    24    23    24    1
    25     7    25    1
    26    25    26    1
    27    26    27    1
    28    27    28    2
    29    27    29    1
    30    29    30    1
    31    29    31    1
    32    29    32    1
    33    32    33    1



#	Name:			CHEMBL156695
#	Creating user name:	trannguyen
#	Creation time:		Fri Mar 18 16:33:25 2022


#	Modifying user name:	trannguyen
#	Modification time:	Fri Mar 18 16:33:25 2022

@<TRIPOS>MOLECULE
CHEMBL156695
 33 36 0 0 0
SMALL
GASTEIGER

@<TRIPOS>ATOM
      1 C           4.6849   32.6972    5.3825 C.ar    1  UNL1        0.0546
      2 N           5.1476   32.8320    4.1042 N.ar    1  UNL1       -0.2500
      3 C           6.4534   32.7272    3.8437 C.ar    1  UNL1        0.0809
      4 C           7.3445   32.5182    4.8873 C.ar    1  UNL1        0.0188
      5 C           6.9557   32.3617    6.2558 C.ar    1  UNL1       -0.0013
      6 C           5.5508   32.4755    6.5255 C.ar    1  UNL1       -0.0085
      7 C           8.1272   32.1220    7.1956 C.ar    1  UNL1       -0.0001
      8 C           8.5765   30.8575    7.6087 C.ar    1  UNL1        0.0023
      9 C           9.5994   30.7104    8.5746 C.ar    1  UNL1        0.0296
     10 C          10.1033   31.8190    9.2435 C.ar    1  UNL1        0.1401
     11 F          10.9731   31.6597   10.2503 F       1  UNL1       -0.2042
     12 C           9.6687   33.0839    8.9097 C.ar    1  UNL1        0.0296
     13 C           8.7342   33.2273    7.8723 C.ar    1  UNL1        0.0023
     14 C           6.8566   32.8050    2.4140 C.ar    1  UNL1        0.0176
     15 C           6.5666   33.9332    1.6199 C.ar    1  UNL1        0.0015
     16 C           6.9428   34.0021    0.2689 C.ar    1  UNL1        0.0000
     17 C           7.6105   32.9368   -0.3273 C.ar    1  UNL1        0.0000
     18 C           7.8986   31.8044    0.4252 C.ar    1  UNL1        0.0000
     19 C           7.5222   31.7400    1.7734 C.ar    1  UNL1        0.0015
     20 C           2.5331   33.9092    4.5421 C.3     1  UNL1        0.0063
     21 C           3.1461   32.7683    5.3671 C.3     1  UNL1        0.0400
     22 C           2.4081   31.4306    5.2267 C.3     1  UNL1        0.0063
     23 C           4.8733   32.5824    7.8880 C.3     1  UNL1        0.0313
     24 C           4.5833   31.5407    8.9774 C.3     1  UNL1        0.0484
     25 C           3.3770   30.5998    8.8376 C.3     1  UNL1        0.1716
     26 C           3.2281   29.8733   10.1761 C.3     1  UNL1        0.0734
     27 C           1.9574   29.0684   10.2781 C.3     1  UNL1        0.1252
     28 O           1.4964   29.0912   11.6304 O.3     1  UNL1       -0.3838
     29 C           0.8715   29.5254    9.3126 C.3     1  UNL1        0.1388
     30 C           0.9861   30.9818    8.9831 C.2     1  UNL1        0.3194
     31 O          -0.0031   31.7513    9.0116 O.2     1  UNL1       -0.2500
     32 O           2.1890   31.4185    8.5990 O.3     1  UNL1       -0.4521
     33 H           1.2584   30.0044   11.8720 H       1  UNL1        0.2104
@<TRIPOS>BOND
     1    20    21    1
     2    21    22    1
     3    21     1    1
     4     1     2   ar
     5     1     6   ar
     6     2     3   ar
     7     3    14    1
     8     3     4   ar
     9    14    15   ar
    10    14    19   ar
    11    15    16   ar
    12    16    17   ar
    13    17    18   ar
    14    18    19   ar
    15     4     5   ar
    16     5     7    1
    17     5     6   ar
    18     7     8   ar
    19     7    13   ar
    20     8     9   ar
    21     9    10   ar
    22    10    11    1
    23    10    12   ar
    24    12    13   ar
    25     6    23    1
    26    23    24    1
    27    24    25    1
    28    25    26    1
    29    25    32    1
    30    26    27    1
    31    27    29    1
    32    27    28    1
    33    28    33    1
    34    29    30    1
    35    30    31    2
    36    30    32    1



#	Name:			CHEMBL159103
#	Creating user name:	trannguyen
#	Creation time:		Fri Mar 18 16:33:25 2022


#	Modifying user name:	trannguyen
#	Modification time:	Fri Mar 18 16:33:25 2022

@<TRIPOS>MOLECULE
CHEMBL159103
 33 35 0 0 0
SMALL
GASTEIGER

@<TRIPOS>ATOM
      1 C           3.9533   31.5923    3.8264 C.3     1  UNL1        0.0504
      2 C           4.9467   32.1312    4.8164 C.ar    1  UNL1        0.0414
      3 C           4.7978   32.4262    6.1714 C.ar    1  UNL1        0.0128
      4 C           6.1233   32.4595    6.7480 C.ar    1  UNL1        0.0131
      5 C           6.9920   32.1555    5.6781 C.ar    1  UNL1        0.0414
      6 C           8.4381   31.7930    5.7430 C.3     1  UNL1        0.0504
      7 N           6.2777   32.3481    4.4781 N.ar    1  UNL1       -0.3135
      8 C           6.5743   32.6182    8.1664 C.ar    1  UNL1        0.0013
      9 C           6.4701   31.5559    9.0898 C.ar    1  UNL1        0.0023
     10 C           6.9531   31.6657   10.4087 C.ar    1  UNL1        0.0296
     11 C           7.5438   32.8453   10.8326 C.ar    1  UNL1        0.1401
     12 F           8.0163   32.9473   12.0825 F       1  UNL1       -0.2042
     13 C           7.6424   33.9198    9.9656 C.ar    1  UNL1        0.0296
     14 C           7.1554   33.8071    8.6490 C.ar    1  UNL1        0.0023
     15 C           6.7516   32.6111    3.1367 C.ar    1  UNL1        0.0634
     16 C           6.6632   33.9075    2.5882 C.ar    1  UNL1        0.0175
     17 C           7.1758   34.1835    1.3056 C.ar    1  UNL1        0.0015
     18 C           7.7676   33.1764    0.5484 C.ar    1  UNL1        0.0001
     19 C           7.8261   31.8912    1.0627 C.ar    1  UNL1        0.0015
     20 C           7.3195   31.6169    2.3374 C.ar    1  UNL1        0.0175
     21 C           3.5224   32.4647    6.8415 C.2     1  UNL1       -0.0010
     22 C           2.9458   31.4418    7.4936 C.2     1  UNL1        0.0026
     23 C           1.6955   31.4736    8.3144 C.3     1  UNL1        0.1349
     24 O           0.8674   30.4495    7.7631 O.3     1  UNL1       -0.3800
     25 H           0.1077   30.3322    8.3582 H       1  UNL1        0.2108
     26 C           1.7942   31.3886    9.8583 C.3     1  UNL1        0.0634
     27 C           1.6823   30.0346   10.5842 C.3     1  UNL1        0.1188
     28 O           0.4304   29.4318   10.2318 O.3     1  UNL1       -0.3840
     29 H           0.4333   28.5246   10.5856 H       1  UNL1        0.2104
     30 C           2.7960   29.0306   10.3658 C.3     1  UNL1        0.0710
     31 C           2.5351   27.6412   10.8737 C.2     1  UNL1        0.0528
     32 O           2.6733   26.6623   10.1124 O.co2   1  UNL1       -0.5491
     33 O           1.9929   27.5992   12.0301 O.co2   1  UNL1       -0.5491
@<TRIPOS>UNITY_ATOM_ATTR
32 1
charge -1
@<TRIPOS>BOND
     1     1     2    1
     2     2     3   ar
     3     2     7   ar
     4     3    21    1
     5     3     4   ar
     6    21    22    2
     7    22    23    1
     8    23    24    1
     9    23    26    1
    10    24    25    1
    11    26    27    1
    12    27    28    1
    13    27    30    1
    14    28    29    1
    15    30    31    1
    16    31    32   ar
    17    31    33   ar
    18     4     8    1
    19     4     5   ar
    20     8     9   ar
    21     8    14   ar
    22     9    10   ar
    23    10    11   ar
    24    11    12    1
    25    11    13   ar
    26    13    14   ar
    27     5     6    1
    28     5     7   ar
    29     7    15    1
    30    15    16   ar
    31    15    20   ar
    32    16    17   ar
    33    17    18   ar
    34    18    19   ar
    35    19    20   ar



#	Name:			CHEMBL161829
#	Creating user name:	trannguyen
#	Creation time:		Fri Mar 18 16:33:25 2022


#	Modifying user name:	trannguyen
#	Modification time:	Fri Mar 18 16:33:25 2022

@<TRIPOS>MOLECULE
CHEMBL161829
 33 35 0 0 0
SMALL
GASTEIGER

@<TRIPOS>ATOM
      1 C           3.6190   33.5267    3.5339 C.3     1  UNL1        0.0500
      2 C           4.6424   32.8299    4.3561 C.ar    1  UNL1        0.0375
      3 C           4.5152   32.2380    5.6178 C.ar    1  UNL1       -0.0090
      4 C           5.8211   32.4263    6.2601 C.ar    1  UNL1        0.0091
      5 C           6.5790   33.0860    5.2783 C.ar    1  UNL1        0.0411
      6 C           7.6139   34.1663    5.3774 C.3     1  UNL1        0.0503
      7 N           5.9896   32.8349    4.0474 N.ar    1  UNL1       -0.3138
      8 C           6.2380   32.3470    7.6927 C.ar    1  UNL1        0.0010
      9 C           7.0231   31.2977    8.2005 C.ar    1  UNL1        0.0023
     10 C           7.3633   31.2131    9.5622 C.ar    1  UNL1        0.0296
     11 C           6.9004   32.1674   10.4509 C.ar    1  UNL1        0.1401
     12 F           7.1937   32.0676   11.7535 F       1  UNL1       -0.2042
     13 C           6.1368   33.2257    9.9954 C.ar    1  UNL1        0.0296
     14 C           5.8400   33.3274    8.6275 C.ar    1  UNL1        0.0023
     15 C           6.6437   32.7383    2.7700 C.ar    1  UNL1        0.0634
     16 C           6.6017   33.7768    1.8302 C.ar    1  UNL1        0.0175
     17 C           7.2272   33.6570    0.5839 C.ar    1  UNL1        0.0015
     18 C           7.8693   32.4777    0.2342 C.ar    1  UNL1        0.0001
     19 C           7.8910   31.4183    1.1364 C.ar    1  UNL1        0.0015
     20 C           7.2895   31.5455    2.3988 C.ar    1  UNL1        0.0175
     21 C           3.2022   31.8045    6.2533 C.3     1  UNL1        0.0300
     22 C           2.5349   32.7686    7.2590 C.3     1  UNL1        0.0340
     23 C           2.0578   32.0646    8.5254 C.3     1  UNL1        0.1133
     24 O           0.6328   31.9962    8.4510 O.3     1  UNL1       -0.3844
     25 H           0.3444   31.7109    9.3549 H       1  UNL1        0.2103
     26 C           2.7025   30.6866    8.7238 C.3     1  UNL1        0.0588
     27 C           3.0696   30.2496   10.1593 C.3     1  UNL1        0.1185
     28 O           2.0298   30.7691   11.0180 O.3     1  UNL1       -0.3840
     29 H           1.2919   30.1351   11.0352 H       1  UNL1        0.2104
     30 C           3.2100   28.7523   10.4229 C.3     1  UNL1        0.0710
     31 C           1.9912   28.0258   10.9700 C.2     1  UNL1        0.0528
     32 O           0.8736   28.3873   10.4923 O.co2   1  UNL1       -0.5491
     33 O           2.1478   27.0533   11.7397 O.co2   1  UNL1       -0.5491
@<TRIPOS>UNITY_ATOM_ATTR
32 1
charge -1
@<TRIPOS>BOND
     1     1     2    1
     2     2     3   ar
     3     2     7   ar
     4     3    21    1
     5     3     4   ar
     6    21    22    1
     7    22    23    1
     8    23    24    1
     9    23    26    1
    10    24    25    1
    11    26    27    1
    12    27    28    1
    13    27    30    1
    14    28    29    1
    15    30    31    1
    16    31    32   ar
    17    31    33   ar
    18     4     8    1
    19     4     5   ar
    20     8     9   ar
    21     8    14   ar
    22     9    10   ar
    23    10    11   ar
    24    11    12    1
    25    11    13   ar
    26    13    14   ar
    27     5     6    1
    28     5     7   ar
    29     7    15    1
    30    15    16   ar
    31    15    20   ar
    32    16    17   ar
    33    17    18   ar
    34    18    19   ar
    35    19    20   ar



#	Name:			CHEMBL175236
#	Creating user name:	trannguyen
#	Creation time:		Fri Mar 18 16:33:25 2022


#	Modifying user name:	trannguyen
#	Modification time:	Fri Mar 18 16:33:25 2022

@<TRIPOS>MOLECULE
CHEMBL175236
 32 33 0 0 0
SMALL
GASTEIGER

@<TRIPOS>ATOM
      1 C           4.1623   31.7967    8.7062 C.3     1  UNL1        0.1730
      2 C           2.8371   32.6277    8.7765 C.3     1  UNL1        0.0483
      3 C           2.9897   34.0928    9.2845 C.3     1  UNL1        0.0253
      4 C           2.0189   34.3303   10.4587 C.3     1  UNL1        0.0048
      5 C           4.4132   34.4787    9.6510 C.2     1  UNL1       -0.0305
      6 C           5.4938   33.8071    9.2006 C.2     1  UNL1       -0.0236
      7 C           6.8137   33.9600    9.7998 C.2     1  UNL1       -0.0091
      8 C           7.7712   33.0140    9.6873 C.2     1  UNL1       -0.0268
      9 C           7.5423   31.7427    8.8895 C.3     1  UNL1        0.0224
     10 C           8.7727   30.8929    8.5389 C.3     1  UNL1        0.0047
     11 C           6.6922   32.0933    7.6430 C.3     1  UNL1        0.0116
     12 C           5.3077   32.7194    8.1504 C.3     1  UNL1        0.0624
     13 O           4.4407   31.2920   10.0507 O.3     1  UNL1       -0.4519
     14 C           4.6739   29.9826   10.2200 C.2     1  UNL1        0.3163
     15 O           5.7435   29.5061   10.7035 O.2     1  UNL1       -0.2501
     16 C           3.4814   29.1087    9.8252 C.3     1  UNL1        0.0991
     17 C           3.8994   27.6581    9.9679 C.3     1  UNL1        0.0116
     18 C           0.9063   29.0199    9.9283 C.3     1  UNL1        0.0006
     19 C           2.2037   29.4865   10.5848 C.3     1  UNL1        0.0111
     20 C           7.4397   33.1205    6.6471 C.3     1  UNL1        0.0033
     21 C           7.5956   32.8212    5.1226 C.3     1  UNL1        0.0293
     22 C           6.3294   32.8321    4.1975 C.3     1  UNL1        0.1130
     23 O           6.6990   32.7844    2.8256 O.3     1  UNL1       -0.3844
     24 H           5.8861   32.6076    2.3123 H       1  UNL1        0.2103
     25 C           5.2082   31.8151    4.4929 C.3     1  UNL1        0.0588
     26 C           3.8629   32.0177    3.7596 C.3     1  UNL1        0.1185
     27 O           3.4309   30.6999    3.4119 O.3     1  UNL1       -0.3840
     28 H           2.5776   30.5300    3.8385 H       1  UNL1        0.2104
     29 C           2.8231   32.7823    4.5870 C.3     1  UNL1        0.0710
     30 C           1.5985   32.1311    5.2044 C.2     1  UNL1        0.0528
     31 O           1.7040   31.0755    5.8912 O.co2   1  UNL1       -0.5491
     32 O           0.4623   32.5978    4.8996 O.co2   1  UNL1       -0.5491
@<TRIPOS>UNITY_ATOM_ATTR
31 1
charge -1
@<TRIPOS>BOND
     1    18    19    1
     2    16    17    1
     3    16    14    1
     4    16    19    1
     5    14    15    2
     6    14    13    1
     7     1     2    1
     8     1    12    1
     9     1    13    1
    10     2     3    1
    11     3     4    1
    12     3     5    1
    13     5     6    2
    14     6     7    1
    15     6    12    1
    16     7     8    2
    17     8     9    1
    18     9    10    1
    19     9    11    1
    20    11    20    1
    21    11    12    1
    22    20    21    1
    23    21    22    1
    24    22    23    1
    25    22    25    1
    26    23    24    1
    27    25    26    1
    28    26    27    1
    29    26    29    1
    30    27    28    1
    31    29    30    1
    32    30    31   ar
    33    30    32   ar



#	Name:			CHEMBL228583
#	Creating user name:	trannguyen
#	Creation time:		Fri Mar 18 16:33:25 2022


#	Modifying user name:	trannguyen
#	Modification time:	Fri Mar 18 16:33:25 2022

@<TRIPOS>MOLECULE
CHEMBL228583
 45 49 0 0 0
SMALL
GASTEIGER

@<TRIPOS>ATOM
      1 N           4.4328   32.5339    5.5437 N.ar    1  UNL1       -0.3288
      2 C           4.4540   32.1427    6.9278 C.ar    1  UNL1        0.0372
      3 C           5.7713   32.3599    7.4071 C.ar    1  UNL1        0.0133
      4 C           6.5359   32.6247    6.2012 C.ar    1  UNL1        0.0230
      5 C           7.9760   32.6848    5.8797 C.ar    1  UNL1        0.0175
      6 C           8.9142   31.9117    6.4984 C.ar    1  UNL1        0.0015
      7 C          10.2794   32.1044    6.2848 C.ar    1  UNL1        0.0001
      8 C          10.7061   33.0376    5.3464 C.ar    1  UNL1        0.0015
      9 C           9.7705   33.7046    4.5640 C.ar    1  UNL1        0.0173
     10 C           8.3932   33.5339    4.7731 C.ar    1  UNL1        0.0628
     11 N           7.4106   34.1347    3.9399 N.ar    1  UNL1       -0.2902
     12 C           6.0456   34.0643    4.2248 C.ar    1  UNL1        0.2769
     13 O           5.2546   34.8707    3.7301 O.2     1  UNL1       -0.2654
     14 C           5.6280   33.1273    5.2255 C.ar    1  UNL1        0.1165
     15 C           6.1991   32.3237    8.8497 C.ar    1  UNL1        0.0013
     16 C           6.5443   33.4622    9.5995 C.ar    1  UNL1        0.0023
     17 C           7.0026   33.4150   10.9252 C.ar    1  UNL1        0.0296
     18 C           7.0924   32.2014   11.5662 C.ar    1  UNL1        0.1401
     19 F           7.4937   32.1463   12.8410 F       1  UNL1       -0.2042
     20 C           6.7832   31.0428   10.8805 C.ar    1  UNL1        0.0296
     21 C           6.3876   31.1071    9.5309 C.ar    1  UNL1        0.0023
     22 C           2.7150   30.8999    4.4888 C.3     1  UNL1        0.0245
     23 C           3.3345   32.3194    4.5758 C.3     1  UNL1        0.0854
     24 C           2.1231   33.2393    4.7961 C.3     1  UNL1        0.0245
     25 C           3.2183   31.5402    7.6643 C.3     1  UNL1        0.0463
     26 C           2.5048   32.5659    8.5639 C.3     1  UNL1        0.0355
     27 C           1.4059   32.0927    9.5192 C.3     1  UNL1        0.1133
     28 O           0.2755   32.9564    9.3012 O.3     1  UNL1       -0.3844
     29 H          -0.4814   32.5805    9.7892 H       1  UNL1        0.2103
     30 C           0.9313   30.6243    9.3041 C.3     1  UNL1        0.0588
     31 C           1.1886   29.5041   10.3502 C.3     1  UNL1        0.1185
     32 O           0.2502   28.4507   10.0095 O.3     1  UNL1       -0.3840
     33 H           0.5509   27.6329   10.4515 H       1  UNL1        0.2104
     34 C           2.5579   28.8326   10.3635 C.3     1  UNL1        0.0710
     35 C           2.5650   27.3401   10.6102 C.2     1  UNL1        0.0528
     36 O           2.1528   26.9464   11.7302 O.co2   1  UNL1       -0.5491
     37 O           3.1834   26.6768    9.7125 O.co2   1  UNL1       -0.5491
     38 C           7.8042   34.8563    2.7043 C.3     1  UNL1        0.1358
     39 C           7.7023   34.0504    1.4251 C.ar    1  UNL1        0.0027
     40 C           7.9812   32.6740    1.3938 C.ar    1  UNL1       -0.0022
     41 C           7.9629   31.9565    0.1962 C.ar    1  UNL1        0.0020
     42 C           7.6675   32.6078   -0.9960 C.ar    1  UNL1        0.0296
     43 C           7.4036   33.9713   -0.9791 C.ar    1  UNL1        0.1399
     44 F           7.1167   34.5989   -2.1273 F       1  UNL1       -0.2042
     45 C           7.4311   34.6978    0.2096 C.ar    1  UNL1        0.0272
@<TRIPOS>UNITY_ATOM_ATTR
36 1
charge -1
@<TRIPOS>BOND
     1    22    23    1
     2    23    24    1
     3    23     1    1
     4     1     2   ar
     5     1    14   ar
     6     2    25    1
     7     2     3   ar
     8    25    26    1
     9    26    27    1
    10    27    28    1
    11    27    30    1
    12    28    29    1
    13    30    31    1
    14    31    32    1
    15    31    34    1
    16    32    33    1
    17    34    35    1
    18    35    36   ar
    19    35    37   ar
    20     3    15    1
    21     3     4   ar
    22    15    16   ar
    23    15    21   ar
    24    16    17   ar
    25    17    18   ar
    26    18    19    1
    27    18    20   ar
    28    20    21   ar
    29     4     5   ar
    30     4    14   ar
    31     5     6   ar
    32     5    10   ar
    33     6     7   ar
    34     7     8   ar
    35     8     9   ar
    36     9    10   ar
    37    10    11   ar
    38    11    38    1
    39    11    12   ar
    40    38    39    1
    41    39    40   ar
    42    39    45   ar
    43    40    41   ar
    44    41    42   ar
    45    42    43   ar
    46    43    44    1
    47    43    45   ar
    48    12    13    2
    49    12    14   ar



#	Name:			CHEMBL228667
#	Creating user name:	trannguyen
#	Creation time:		Fri Mar 18 16:33:25 2022


#	Modifying user name:	trannguyen
#	Modification time:	Fri Mar 18 16:33:25 2022

@<TRIPOS>MOLECULE
CHEMBL228667
 44 48 0 0 0
SMALL
GASTEIGER

@<TRIPOS>ATOM
      1 N           4.8698   32.6307    5.5473 N.ar    1  UNL1       -0.3290
      2 C           4.8960   33.0238    6.8924 C.ar    1  UNL1        0.0371
      3 C           6.2334   33.1219    7.2993 C.ar    1  UNL1        0.0132
      4 C           7.0049   32.5902    6.2129 C.ar    1  UNL1        0.0211
      5 C           6.1699   32.4286    5.1174 C.ar    1  UNL1        0.1142
      6 C           6.5796   32.0682    3.7575 C.2     1  UNL1        0.2689
      7 O           6.1511   31.0560    3.2359 O.2     1  UNL1       -0.2680
      8 N           7.5383   32.9186    3.1377 N.am    1  UNL1       -0.2497
      9 C           8.3859   33.7575    4.0018 C.3     1  UNL1        0.1251
     10 C           9.1394   32.9134    5.0188 C.ar    1  UNL1       -0.0019
     11 C          10.5176   32.6870    4.9033 C.ar    1  UNL1       -0.0026
     12 C          11.1750   31.8670    5.8231 C.ar    1  UNL1       -0.0003
     13 C          10.4576   31.2412    6.8417 C.ar    1  UNL1       -0.0000
     14 C           9.0833   31.4582    6.9647 C.ar    1  UNL1       -0.0002
     15 C           8.4311   32.3143    6.0751 C.ar    1  UNL1       -0.0008
     16 C           6.7631   33.6260    8.5929 C.ar    1  UNL1        0.0013
     17 C           7.5948   34.7685    8.6092 C.ar    1  UNL1        0.0023
     18 C           8.2242   35.2131    9.7803 C.ar    1  UNL1        0.0296
     19 C           7.9731   34.5655   10.9769 C.ar    1  UNL1        0.1401
     20 F           8.5722   34.9826   12.0991 F       1  UNL1       -0.2042
     21 C           7.1122   33.4840   11.0158 C.ar    1  UNL1        0.0296
     22 C           6.5342   33.0089    9.8294 C.ar    1  UNL1        0.0023
     23 C           7.5735   33.0762    1.6979 C.ar    1  UNL1        0.0545
     24 C           8.2452   32.1659    0.8667 C.ar    1  UNL1        0.0149
     25 C           8.2146   32.2536   -0.5279 C.ar    1  UNL1        0.0013
     26 C           7.4861   33.2608   -1.1433 C.ar    1  UNL1        0.0001
     27 C           6.8145   34.1844   -0.3574 C.ar    1  UNL1        0.0013
     28 C           6.8662   34.1049    1.0426 C.ar    1  UNL1        0.0149
     29 C           3.6186   33.2908    3.4674 C.3     1  UNL1        0.0245
     30 C           3.6399   32.4685    4.7539 C.3     1  UNL1        0.0854
     31 C           3.2683   30.9986    4.5186 C.3     1  UNL1        0.0245
     32 C           3.5993   33.2017    7.6503 C.3     1  UNL1        0.0463
     33 C           3.0296   31.9271    8.2702 C.3     1  UNL1        0.0355
     34 C           1.4972   31.9957    8.4163 C.3     1  UNL1        0.1133
     35 O           0.9243   32.0366    7.1097 O.3     1  UNL1       -0.3844
     36 H           0.0762   32.5444    7.2540 H       1  UNL1        0.2103
     37 C           0.9029   30.8261    9.2084 C.3     1  UNL1        0.0588
     38 C           1.8737   29.9389   10.0051 C.3     1  UNL1        0.1185
     39 O           1.7548   30.4063   11.3718 O.3     1  UNL1       -0.3840
     40 H           2.0605   29.6859   11.9491 H       1  UNL1        0.2104
     41 C           1.6038   28.4417    9.9957 C.3     1  UNL1        0.0710
     42 C           2.3492   27.5538   10.9864 C.2     1  UNL1        0.0528
     43 O           3.4621   27.0805   10.5755 O.co2   1  UNL1       -0.5491
     44 O           1.7625   27.3955   12.0852 O.co2   1  UNL1       -0.5491
@<TRIPOS>UNITY_ATOM_ATTR
43 1
charge -1
@<TRIPOS>BOND
     1    29    30    1
     2    30    31    1
     3    30     1    1
     4     1     2   ar
     5     1     5   ar
     6     2    32    1
     7     2     3   ar
     8    32    33    1
     9    33    34    1
    10    34    35    1
    11    34    37    1
    12    35    36    1
    13    37    38    1
    14    38    39    1
    15    38    41    1
    16    39    40    1
    17    41    42    1
    18    42    43   ar
    19    42    44   ar
    20     3    16    1
    21     3     4   ar
    22    16    17   ar
    23    16    22   ar
    24    17    18   ar
    25    18    19   ar
    26    19    20    1
    27    19    21   ar
    28    21    22   ar
    29     4     5   ar
    30     4    15    1
    31     5     6    1
    32     6     7    2
    33     6     8   am
    34     8    23    1
    35     8     9    1
    36    23    24   ar
    37    23    28   ar
    38    24    25   ar
    39    25    26   ar
    40    26    27   ar
    41    27    28   ar
    42     9    10    1
    43    10    11   ar
    44    10    15   ar
    45    11    12   ar
    46    12    13   ar
    47    13    14   ar
    48    14    15   ar



#	Name:			CHEMBL228954
#	Creating user name:	trannguyen
#	Creation time:		Fri Mar 18 16:33:25 2022


#	Modifying user name:	trannguyen
#	Modification time:	Fri Mar 18 16:33:25 2022

@<TRIPOS>MOLECULE
CHEMBL228954
 38 41 0 0 0
SMALL
GASTEIGER

@<TRIPOS>ATOM
      1 N           3.8253   32.8082    6.1783 N.ar    1  UNL1       -0.3288
      2 C           4.1444   32.7992    7.5596 C.ar    1  UNL1        0.0372
      3 C           5.5636   32.8357    7.7039 C.ar    1  UNL1        0.0132
      4 C           6.0835   32.6644    6.3626 C.ar    1  UNL1        0.0229
      5 C           7.4229   32.6462    5.7165 C.ar    1  UNL1        0.0172
      6 C           8.6020   32.1723    6.2802 C.ar    1  UNL1        0.0015
      7 C           9.8334   32.3982    5.6333 C.ar    1  UNL1        0.0001
      8 C           9.8905   33.0466    4.3957 C.ar    1  UNL1        0.0015
      9 C           8.7109   33.3623    3.7381 C.ar    1  UNL1        0.0170
     10 C           7.4926   33.1119    4.3742 C.ar    1  UNL1        0.0589
     11 N           6.3290   33.1381    3.5856 N.ar    1  UNL1       -0.3198
     12 H           6.4449   33.1302    2.5830 H       1  UNL1        0.1690
     13 C           5.2143   32.4496    4.0554 C.ar    1  UNL1        0.2735
     14 O           4.6190   31.6721    3.3781 O.2     1  UNL1       -0.2656
     15 C           5.0055   32.6289    5.4804 C.ar    1  UNL1        0.1163
     16 C           6.3009   32.9474    9.0180 C.ar    1  UNL1        0.0013
     17 C           6.8892   34.1410    9.4586 C.ar    1  UNL1        0.0023
     18 C           7.6662   34.1977   10.6409 C.ar    1  UNL1        0.0296
     19 C           7.8507   33.0660   11.4230 C.ar    1  UNL1        0.1401
     20 F           8.6002   33.1146   12.5317 F       1  UNL1       -0.2042
     21 C           7.2452   31.8872   11.0629 C.ar    1  UNL1        0.0296
     22 C           6.4847   31.8543    9.8863 C.ar    1  UNL1        0.0023
     23 C           2.4182   34.1272    4.5086 C.3     1  UNL1        0.0245
     24 C           2.4729   33.0422    5.6014 C.3     1  UNL1        0.0854
     25 C           1.7149   31.8317    5.0262 C.3     1  UNL1        0.0245
     26 C           3.0548   32.8350    8.6285 C.3     1  UNL1        0.0463
     27 C           2.3537   31.4912    8.9633 C.3     1  UNL1        0.0355
     28 C           0.8235   31.4097    9.2397 C.3     1  UNL1        0.1133
     29 O           0.1852   32.2038    8.2339 O.3     1  UNL1       -0.3844
     30 H          -0.7719   31.9829    8.2719 H       1  UNL1        0.2103
     31 C           0.2817   29.9747    9.1702 C.3     1  UNL1        0.0588
     32 C           0.7786   28.9598   10.2087 C.3     1  UNL1        0.1185
     33 O          -0.3124   28.2409   10.7620 O.3     1  UNL1       -0.3840
     34 H           0.0676   27.4433   11.1850 H       1  UNL1        0.2104
     35 C           1.8809   28.0495    9.6444 C.3     1  UNL1        0.0710
     36 C           2.7166   27.3605   10.7047 C.2     1  UNL1        0.0528
     37 O           2.0769   27.0217   11.7505 O.co2   1  UNL1       -0.5491
     38 O           3.9419   27.2341   10.4772 O.co2   1  UNL1       -0.5491
@<TRIPOS>UNITY_ATOM_ATTR
37 1
charge -1
@<TRIPOS>BOND
     1    23    24    1
     2    24    25    1
     3    24     1    1
     4     1     2   ar
     5     1    15   ar
     6     2    26    1
     7     2     3   ar
     8    26    27    1
     9    27    28    1
    10    28    29    1
    11    28    31    1
    12    29    30    1
    13    31    32    1
    14    32    33    1
    15    32    35    1
    16    33    34    1
    17    35    36    1
    18    36    37   ar
    19    36    38   ar
    20     3    16    1
    21     3     4   ar
    22    16    17   ar
    23    16    22   ar
    24    17    18   ar
    25    18    19   ar
    26    19    20    1
    27    19    21   ar
    28    21    22   ar
    29     4     5   ar
    30     4    15   ar
    31     5     6   ar
    32     5    10   ar
    33     6     7   ar
    34     7     8   ar
    35     8     9   ar
    36     9    10   ar
    37    10    11   ar
    38    11    12    1
    39    11    13   ar
    40    13    14    2
    41    13    15   ar



#	Name:			CHEMBL249884
#	Creating user name:	trannguyen
#	Creation time:		Fri Mar 18 16:33:25 2022


#	Modifying user name:	trannguyen
#	Modification time:	Fri Mar 18 16:33:25 2022

@<TRIPOS>MOLECULE
CHEMBL249884
 40 42 0 0 0
SMALL
GASTEIGER

@<TRIPOS>ATOM
      1 C           6.4331   33.0891    6.3258 C.ar    1  UNL1        0.1136
      2 C           5.1940   32.5128    6.7292 C.ar    1  UNL1        0.0213
      3 C           5.4186   32.1027    8.1380 C.ar    1  UNL1        0.0132
      4 C           6.4920   32.8940    8.6274 C.ar    1  UNL1        0.0371
      5 N           7.1979   33.3812    7.4866 N.ar    1  UNL1       -0.3290
      6 C           4.6380   31.1144    8.9517 C.ar    1  UNL1        0.0013
      7 C           5.3136   30.1800    9.7416 C.ar    1  UNL1        0.0023
      8 C           4.7161   29.0010   10.2177 C.ar    1  UNL1        0.0296
      9 C           3.3448   28.9380   10.2526 C.ar    1  UNL1        0.1401
     10 F           2.7324   27.8879   10.8123 F       1  UNL1       -0.2042
     11 C           2.6119   30.0090    9.7802 C.ar    1  UNL1        0.0296
     12 C           3.2520   31.0486    9.0792 C.ar    1  UNL1        0.0023
     13 C           4.0097   32.3281    5.7571 C.ar    1  UNL1        0.0016
     14 C           3.8645   31.2433    4.8803 C.ar    1  UNL1        0.0000
     15 C           2.9298   31.1186    3.8447 C.ar    1  UNL1        0.0000
     16 C           1.9646   32.0745    3.7002 C.ar    1  UNL1        0.0000
     17 C           1.9571   33.1240    4.6132 C.ar    1  UNL1        0.0000
     18 C           2.9574   33.2515    5.6223 C.ar    1  UNL1        0.0000
     19 N           7.2640   32.4550    4.1237 N.am    1  UNL1       -0.2997
     20 C           6.8109   33.4257    4.9746 C.2     1  UNL1        0.2617
     21 O           6.6681   34.6183    4.5754 O.2     1  UNL1       -0.2686
     22 H           7.2234   31.5008    4.4702 H       1  UNL1        0.1498
     23 C           7.7220   31.3537    1.8620 C.3     1  UNL1        0.0230
     24 C           7.5672   32.6276    2.6909 C.3     1  UNL1        0.0898
     25 C           8.5140   34.1013    7.5772 C.3     1  UNL1        0.0854
     26 C           9.7033   33.5051    6.7875 C.3     1  UNL1        0.0245
     27 C           8.6048   35.6181    7.3045 C.3     1  UNL1        0.0245
     28 C           6.9893   33.1285   10.0848 C.3     1  UNL1        0.0463
     29 C           6.4614   34.4274   10.8062 C.3     1  UNL1        0.0355
     30 C           4.9104   34.4188   11.0003 C.3     1  UNL1        0.1133
     31 O           4.6300   35.1422   12.2045 O.3     1  UNL1       -0.3844
     32 H           3.7946   34.7809   12.5542 H       1  UNL1        0.2103
     33 C           3.9909   35.0015    9.8768 C.3     1  UNL1        0.0588
     34 C           2.5061   34.6421   10.0377 C.3     1  UNL1        0.1185
     35 O           2.4401   33.6502   11.0759 O.3     1  UNL1       -0.3840
     36 H           1.7964   33.9473   11.7445 H       1  UNL1        0.2104
     37 C           1.5808   35.8046   10.4162 C.3     1  UNL1        0.0710
     38 C           0.0810   35.5917   10.4274 C.2     1  UNL1        0.0528
     39 O          -0.6333   36.6145   10.2943 O.co2   1  UNL1       -0.5491
     40 O          -0.3039   34.3926   10.5854 O.co2   1  UNL1       -0.5491
@<TRIPOS>UNITY_ATOM_ATTR
39 1
charge -1
@<TRIPOS>BOND
     1    23    24    1
     2    24    19    1
     3    19    20   am
     4    19    22    1
     5    20    21    2
     6    20     1    1
     7     1     2   ar
     8     1     5   ar
     9     2    13    1
    10     2     3   ar
    11    13    14   ar
    12    13    18   ar
    13    14    15   ar
    14    15    16   ar
    15    16    17   ar
    16    17    18   ar
    17     3     6    1
    18     3     4   ar
    19     6     7   ar
    20     6    12   ar
    21     7     8   ar
    22     8     9   ar
    23     9    10    1
    24     9    11   ar
    25    11    12   ar
    26     4    28    1
    27     4     5   ar
    28    28    29    1
    29    29    30    1
    30    30    31    1
    31    30    33    1
    32    31    32    1
    33    33    34    1
    34    34    35    1
    35    34    37    1
    36    35    36    1
    37    37    38    1
    38    38    39   ar
    39    38    40   ar
    40     5    25    1
    41    25    26    1
    42    25    27    1



#	Name:			CHEMBL250088
#	Creating user name:	trannguyen
#	Creation time:		Fri Mar 18 16:33:25 2022


#	Modifying user name:	trannguyen
#	Modification time:	Fri Mar 18 16:33:25 2022

@<TRIPOS>MOLECULE
CHEMBL250088
 47 50 0 0 0
SMALL
GASTEIGER

@<TRIPOS>ATOM
      1 C           7.6252   33.4461    6.8602 C.ar    1  UNL1        0.1139
      2 C           6.8021   33.2183    5.7341 C.ar    1  UNL1        0.0214
      3 C           5.4342   32.9423    6.2901 C.ar    1  UNL1        0.0132
      4 C           5.6080   33.0258    7.7014 C.ar    1  UNL1        0.0371
      5 N           6.9564   32.6818    7.8147 N.ar    1  UNL1       -0.3290
      6 C           7.2898   33.2488    4.3377 C.ar    1  UNL1        0.0017
      7 C           7.3451   32.1089    3.5237 C.ar    1  UNL1        0.0024
      8 C           7.6674   32.1776    2.1652 C.ar    1  UNL1        0.0296
      9 C           8.0983   33.3770    1.6324 C.ar    1  UNL1        0.1401
     10 F           8.4749   33.4354    0.3499 F       1  UNL1       -0.2042
     11 C           8.1454   34.5130    2.4210 C.ar    1  UNL1        0.0296
     12 C           7.6700   34.4608    3.7372 C.ar    1  UNL1        0.0024
     13 C           4.1134   32.7824    5.5691 C.ar    1  UNL1        0.0013
     14 C           3.4155   31.5603    5.5264 C.ar    1  UNL1        0.0023
     15 C           2.0806   31.4772    5.0732 C.ar    1  UNL1        0.0296
     16 C           1.4070   32.6091    4.6458 C.ar    1  UNL1        0.1401
     17 F           0.0999   32.5595    4.3583 F       1  UNL1       -0.2042
     18 C           2.0691   33.8118    4.6045 C.ar    1  UNL1        0.0296
     19 C           3.3854   33.8874    5.0828 C.ar    1  UNL1        0.0023
     20 N           8.8627   35.1059    8.1048 N.am    1  UNL1       -0.2791
     21 C           8.9280   34.0608    7.1792 C.2     1  UNL1        0.2654
     22 O           9.9371   33.7472    6.6214 O.2     1  UNL1       -0.2682
     23 H           7.9387   35.4427    8.3202 H       1  UNL1        0.1552
     24 C          11.2564   37.8131    8.8519 C.ar    1  UNL1        0.1400
     25 C          12.1592   37.1618    9.6943 C.ar    1  UNL1        0.0370
     26 C          11.9128   35.8571   10.1202 C.ar    1  UNL1        0.0044
     27 C          10.7886   35.1715    9.6580 C.ar    1  UNL1        0.0149
     28 C           9.9356   35.7717    8.7340 C.ar    1  UNL1        0.0536
     29 C          10.1421   37.1151    8.3815 C.ar    1  UNL1        0.0516
     30 C          11.1158   39.6569    7.3325 C.3     1  UNL1        0.2525
     31 O          11.5842   39.1069    8.5579 O.3     1  UNL1       -0.4714
     32 C           7.4421   31.3312    8.2191 C.3     1  UNL1        0.0854
     33 C           8.3104   30.6233    7.1616 C.3     1  UNL1        0.0245
     34 C           8.3040   31.3582    9.5036 C.3     1  UNL1        0.0245
     35 C           4.7770   33.1170    8.9831 C.3     1  UNL1        0.0463
     36 C           3.2651   33.4080    8.9449 C.3     1  UNL1        0.0355
     37 C           2.2186   32.3126    9.1706 C.3     1  UNL1        0.1133
     38 O           1.2601   32.5385    8.1334 O.3     1  UNL1       -0.3844
     39 H           0.9520   31.6727    7.8287 H       1  UNL1        0.2103
     40 C           2.7590   30.8880    9.0668 C.3     1  UNL1        0.0588
     41 C           2.6045   29.9971   10.3126 C.3     1  UNL1        0.1185
     42 O           1.8558   30.7222   11.2774 O.3     1  UNL1       -0.3840
     43 H           0.9467   30.3932   11.3233 H       1  UNL1        0.2104
     44 C           1.8868   28.7242    9.9786 C.3     1  UNL1        0.0710
     45 C           2.3721   27.4424   10.6120 C.2     1  UNL1        0.0528
     46 O           3.1339   26.7113    9.9334 O.co2   1  UNL1       -0.5491
     47 O           1.9819   27.3200   11.8087 O.co2   1  UNL1       -0.5491
@<TRIPOS>UNITY_ATOM_ATTR
46 1
charge -1
@<TRIPOS>BOND
     1    30    31    1
     2    31    24    1
     3    24    25   ar
     4    24    29   ar
     5    25    26   ar
     6    26    27   ar
     7    27    28   ar
     8    28    20    1
     9    28    29   ar
    10    20    21   am
    11    20    23    1
    12    21    22    2
    13    21     1    1
    14     1     2   ar
    15     1     5   ar
    16     2     6    1
    17     2     3   ar
    18     6     7   ar
    19     6    12   ar
    20     7     8   ar
    21     8     9   ar
    22     9    10    1
    23     9    11   ar
    24    11    12   ar
    25     3    13    1
    26     3     4   ar
    27    13    14   ar
    28    13    19   ar
    29    14    15   ar
    30    15    16   ar
    31    16    17    1
    32    16    18   ar
    33    18    19   ar
    34     4    35    1
    35     4     5   ar
    36    35    36    1
    37    36    37    1
    38    37    38    1
    39    37    40    1
    40    38    39    1
    41    40    41    1
    42    41    42    1
    43    41    44    1
    44    42    43    1
    45    44    45    1
    46    45    46   ar
    47    45    47   ar
    48     5    32    1
    49    32    33    1
    50    32    34    1



#	Name:			CHEMBL250090
#	Creating user name:	trannguyen
#	Creation time:		Fri Mar 18 16:33:25 2022


#	Modifying user name:	trannguyen
#	Modification time:	Fri Mar 18 16:33:25 2022

@<TRIPOS>MOLECULE
CHEMBL250090
 39 41 0 0 0
SMALL
GASTEIGER

@<TRIPOS>ATOM
      1 N           6.7817   32.5828    8.6977 N.ar    1  UNL1       -0.3290
      2 C           6.4325   32.6942    7.3165 C.ar    1  UNL1        0.0371
      3 C           5.0042   32.7825    7.3209 C.ar    1  UNL1        0.0132
      4 C           4.6879   33.3085    8.7322 C.ar    1  UNL1        0.0214
      5 C           5.9455   33.4554    9.4265 C.ar    1  UNL1        0.1139
      6 C           4.1491   32.5415    6.0507 C.ar    1  UNL1        0.0013
      7 C           4.2255   33.2245    4.8159 C.ar    1  UNL1        0.0023
      8 C           3.5454   32.8714    3.6302 C.ar    1  UNL1        0.0296
      9 C           2.5380   31.9513    3.7049 C.ar    1  UNL1        0.1401
     10 F           1.7791   31.7032    2.6305 F       1  UNL1       -0.2042
     11 C           2.2778   31.3533    4.9230 C.ar    1  UNL1        0.0296
     12 C           3.1117   31.5949    6.0481 C.ar    1  UNL1        0.0023
     13 C           3.3929   33.8554    9.2527 C.ar    1  UNL1        0.0016
     14 C           3.1629   35.2026    9.5256 C.ar    1  UNL1        0.0000
     15 C           1.9379   35.6305   10.0863 C.ar    1  UNL1        0.0000
     16 C           1.0076   34.7128   10.5678 C.ar    1  UNL1        0.0000
     17 C           1.2226   33.3765   10.3180 C.ar    1  UNL1        0.0000
     18 C           2.3012   33.0217    9.4969 C.ar    1  UNL1        0.0000
     19 C           6.3446   34.4151   10.5728 C.2     1  UNL1        0.2650
     20 O           5.8709   34.2391   11.6460 O.2     1  UNL1       -0.2683
     21 N           7.1775   35.5840   10.3728 N.am    1  UNL1       -0.2714
     22 C           7.6588   36.3414   11.5196 C.3     1  UNL1        0.1153
     23 C           7.6283   36.2069    9.1615 C.3     1  UNL1        0.1153
     24 C           8.8721   31.3211    9.5725 C.3     1  UNL1        0.0245
     25 C           7.3385   31.3256    9.2989 C.3     1  UNL1        0.0854
     26 C           6.5642   30.7498   10.5321 C.3     1  UNL1        0.0245
     27 C           7.4908   32.4753    6.1914 C.3     1  UNL1        0.0463
     28 C           7.9061   33.5739    5.1917 C.3     1  UNL1        0.0355
     29 C           8.3213   33.2114    3.7588 C.3     1  UNL1        0.1133
     30 O           9.6186   32.5870    3.8262 O.3     1  UNL1       -0.3844
     31 H           9.8839   32.3971    2.9082 H       1  UNL1        0.2103
     32 C           7.4299   32.2358    2.9997 C.3     1  UNL1        0.0588
     33 C           7.7939   31.7810    1.5693 C.3     1  UNL1        0.1185
     34 O           7.3891   30.4430    1.2763 O.3     1  UNL1       -0.3840
     35 H           7.0126   30.4406    0.3638 H       1  UNL1        0.2104
     36 C           7.5898   32.7233    0.4258 C.3     1  UNL1        0.0710
     37 C           8.1375   32.2149   -0.8852 C.2     1  UNL1        0.0528
     38 O           7.3064   31.5146   -1.5092 O.co2   1  UNL1       -0.5491
     39 O           9.2766   32.5806   -1.2033 O.co2   1  UNL1       -0.5491
@<TRIPOS>UNITY_ATOM_ATTR
38 1
charge -1
@<TRIPOS>BOND
     1    24    25    1
     2    25    26    1
     3    25     1    1
     4     1     2   ar
     5     1     5   ar
     6     2    27    1
     7     2     3   ar
     8    27    28    1
     9    28    29    1
    10    29    30    1
    11    29    32    1
    12    30    31    1
    13    32    33    1
    14    33    34    1
    15    33    36    1
    16    34    35    1
    17    36    37    1
    18    37    38   ar
    19    37    39   ar
    20     3     6    1
    21     3     4   ar
    22     6     7   ar
    23     6    12   ar
    24     7     8   ar
    25     8     9   ar
    26     9    10    1
    27     9    11   ar
    28    11    12   ar
    29     4    13    1
    30     4     5   ar
    31    13    14   ar
    32    13    18   ar
    33    14    15   ar
    34    15    16   ar
    35    16    17   ar
    36    17    18   ar
    37     5    19    1
    38    19    20    2
    39    19    21   am
    40    21    22    1
    41    21    23    1



#	Name:			CHEMBL250500
#	Creating user name:	trannguyen
#	Creation time:		Fri Mar 18 16:33:25 2022


#	Modifying user name:	trannguyen
#	Modification time:	Fri Mar 18 16:33:25 2022

@<TRIPOS>MOLECULE
CHEMBL250500
 41 43 0 0 0
SMALL
GASTEIGER

@<TRIPOS>ATOM
      1 C           6.4506   33.2024    5.8832 C.ar    1  UNL1        0.1136
      2 C           5.2876   32.5637    6.4238 C.ar    1  UNL1        0.0213
      3 C           5.5315   32.2629    7.8589 C.ar    1  UNL1        0.0132
      4 C           6.7200   32.9634    8.1296 C.ar    1  UNL1        0.0371
      5 N           7.4047   32.8382    6.8735 N.ar    1  UNL1       -0.3290
      6 C           4.8864   31.3415    8.8641 C.ar    1  UNL1        0.0013
      7 C           5.5417   30.3991    9.6583 C.ar    1  UNL1        0.0023
      8 C           4.9621   29.1877   10.1015 C.ar    1  UNL1        0.0296
      9 C           3.6107   29.0200    9.9450 C.ar    1  UNL1        0.1401
     10 F           3.0099   27.8953   10.3597 F       1  UNL1       -0.2042
     11 C           2.8683   30.0786    9.4401 C.ar    1  UNL1        0.0296
     12 C           3.5010   31.2384    8.9290 C.ar    1  UNL1        0.0023
     13 C           4.0818   32.2277    5.6510 C.ar    1  UNL1        0.0016
     14 C           4.1710   31.3088    4.5965 C.ar    1  UNL1        0.0000
     15 C           3.0840   31.0731    3.7469 C.ar    1  UNL1        0.0000
     16 C           1.9019   31.7875    3.9102 C.ar    1  UNL1        0.0000
     17 C           1.7802   32.6759    4.9759 C.ar    1  UNL1        0.0000
     18 C           2.8498   32.8668    5.8656 C.ar    1  UNL1        0.0000
     19 N           7.2727   33.2288    3.5202 N.am    1  UNL1       -0.3013
     20 C           6.7420   33.9596    4.6046 C.2     1  UNL1        0.2617
     21 O           6.5293   35.1373    4.4003 O.2     1  UNL1       -0.2686
     22 H           7.4477   32.2400    3.6587 H       1  UNL1        0.1497
     23 C           8.8890   34.5878    2.1285 C.3     1  UNL1        0.0213
     24 C           7.5718   33.8102    2.1829 C.3     1  UNL1        0.0720
     25 C           7.5751   32.7927    1.0256 C.3     1  UNL1        0.0213
     26 C           8.6494   32.0198    6.6648 C.3     1  UNL1        0.0854
     27 C           9.9837   32.8277    6.7366 C.3     1  UNL1        0.0245
     28 C           8.8274   30.7594    7.5695 C.3     1  UNL1        0.0245
     29 C           7.3354   33.6425    9.3745 C.3     1  UNL1        0.0463
     30 C           6.5395   33.7881   10.7057 C.3     1  UNL1        0.0355
     31 C           5.1225   34.4260   10.8501 C.3     1  UNL1        0.1133
     32 O           5.2193   35.3565   11.9401 O.3     1  UNL1       -0.3844
     33 H           4.3750   35.8195   12.0913 H       1  UNL1        0.2103
     34 C           4.1175   34.8796    9.7854 C.3     1  UNL1        0.0588
     35 C           2.6505   35.0496   10.3353 C.3     1  UNL1        0.1185
     36 O           1.8304   35.6308    9.3130 O.3     1  UNL1       -0.3840
     37 H           0.9775   35.8118    9.7749 H       1  UNL1        0.2104
     38 C           1.9508   33.7766   10.8379 C.3     1  UNL1        0.0710
     39 C           0.5331   33.6802   10.2726 C.2     1  UNL1        0.0528
     40 O           0.3792   32.7555    9.3946 O.co2   1  UNL1       -0.5491
     41 O          -0.2923   34.4744   10.7353 O.co2   1  UNL1       -0.5491
@<TRIPOS>UNITY_ATOM_ATTR
40 1
charge -1
@<TRIPOS>BOND
     1    23    24    1
     2    24    25    1
     3    24    19    1
     4    19    20   am
     5    19    22    1
     6    20    21    2
     7    20     1    1
     8     1     2   ar
     9     1     5   ar
    10     2    13    1
    11     2     3   ar
    12    13    14   ar
    13    13    18   ar
    14    14    15   ar
    15    15    16   ar
    16    16    17   ar
    17    17    18   ar
    18     3     6    1
    19     3     4   ar
    20     6     7   ar
    21     6    12   ar
    22     7     8   ar
    23     8     9   ar
    24     9    10    1
    25     9    11   ar
    26    11    12   ar
    27     4    29    1
    28     4     5   ar
    29    29    30    1
    30    30    31    1
    31    31    32    1
    32    31    34    1
    33    32    33    1
    34    34    35    1
    35    35    36    1
    36    35    38    1
    37    36    37    1
    38    38    39    1
    39    39    40   ar
    40    39    41   ar
    41     5    26    1
    42    26    27    1
    43    26    28    1



#	Name:			CHEMBL250953
#	Creating user name:	trannguyen
#	Creation time:		Fri Mar 18 16:33:25 2022


#	Modifying user name:	trannguyen
#	Modification time:	Fri Mar 18 16:33:25 2022

@<TRIPOS>MOLECULE
CHEMBL250953
 50 53 0 0 0
SMALL
GASTEIGER

@<TRIPOS>ATOM
      1 N           4.8462   32.3940    5.3337 N.ar    1  UNL1       -0.3290
      2 C           4.8386   32.4725    6.7199 C.ar    1  UNL1        0.0371
      3 C           6.1483   32.4087    7.1665 C.ar    1  UNL1        0.0132
      4 C           6.9938   32.3454    6.0002 C.ar    1  UNL1        0.0214
      5 C           6.1662   32.2097    4.8653 C.ar    1  UNL1        0.1139
      6 C           6.5164   32.4783    8.5865 C.ar    1  UNL1        0.0013
      7 C           6.9604   33.6844    9.1482 C.ar    1  UNL1        0.0023
      8 C           7.4286   33.7259   10.4663 C.ar    1  UNL1        0.0296
      9 C           7.4237   32.5694   11.2363 C.ar    1  UNL1        0.1401
     10 F           7.8856   32.6077   12.4931 F       1  UNL1       -0.2042
     11 C           6.9655   31.3686   10.7122 C.ar    1  UNL1        0.0296
     12 C           6.5248   31.3211    9.3857 C.ar    1  UNL1        0.0023
     13 C           8.4571   32.3785    5.9669 C.ar    1  UNL1        0.0016
     14 C           9.1474   33.3489    5.2256 C.ar    1  UNL1        0.0000
     15 C          10.5423   33.3964    5.2273 C.ar    1  UNL1        0.0000
     16 C          11.2686   32.5185    6.0255 C.ar    1  UNL1        0.0000
     17 C          10.6040   31.5552    6.7745 C.ar    1  UNL1        0.0000
     18 C           9.2166   31.4476    6.6927 C.ar    1  UNL1        0.0000
     19 C           6.5268   31.9656    3.4629 C.2     1  UNL1        0.2654
     20 O           6.4938   30.8386    2.9349 O.2     1  UNL1       -0.2682
     21 N           6.9766   33.0277    2.7654 N.am    1  UNL1       -0.2792
     22 H           7.1718   33.8827    3.3072 H       1  UNL1        0.1552
     23 C           7.2631   33.1158    1.3841 C.ar    1  UNL1        0.0507
     24 C           8.1140   32.2178    0.7115 C.ar    1  UNL1        0.0160
     25 C           8.4432   32.4423   -0.6283 C.ar    1  UNL1        0.0212
     26 C           7.9053   33.5412   -1.2971 C.ar    1  UNL1        0.1218
     27 C           6.9994   34.3903   -0.6544 C.ar    1  UNL1        0.0212
     28 C           6.6649   34.1490    0.6799 C.ar    1  UNL1        0.0160
     29 S           8.4210   33.9265   -2.9416 S.O2    1  UNL1        0.0572
     30 N           7.4020   32.9782   -3.8787 N.3     1  UNL1       -0.2035
     31 O           8.0669   35.2955   -3.2176 O.2     1  UNL1       -0.1532
     32 O           9.7520   33.3984   -3.1702 O.2     1  UNL1       -0.1532
     33 H           6.8350   33.5817   -4.4791 H       1  UNL1        0.1442
     34 H           7.9567   32.2983   -4.3988 H       1  UNL1        0.1442
     35 C           3.5633   33.5932    3.5131 C.3     1  UNL1        0.0245
     36 C           3.6243   32.4267    4.5031 C.3     1  UNL1        0.0854
     37 C           3.2721   31.0595    3.9055 C.3     1  UNL1        0.0245
     38 C           3.5932   32.6518    7.5419 C.3     1  UNL1        0.0463
     39 C           3.0296   31.3050    7.9914 C.3     1  UNL1        0.0355
     40 C           1.5123   31.2910    7.9368 C.3     1  UNL1        0.1133
     41 O           1.1435   30.6767    6.6961 O.3     1  UNL1       -0.3844
     42 H           0.2413   31.0799    6.5339 H       1  UNL1        0.2103
     43 C           0.8481   30.5442    9.0958 C.3     1  UNL1        0.0588
     44 C           1.7996   29.9871   10.1682 C.3     1  UNL1        0.1185
     45 O           1.8383   30.9846   11.2091 O.3     1  UNL1       -0.3840
     46 H           2.4441   30.6516   11.8932 H       1  UNL1        0.2104
     47 C           1.3668   28.6623   10.7886 C.3     1  UNL1        0.0710
     48 C           2.4419   27.5813   10.8597 C.2     1  UNL1        0.0528
     49 O           2.1795   26.6175   11.6292 O.co2   1  UNL1       -0.5491
     50 O           3.4437   27.7530   10.0986 O.co2   1  UNL1       -0.5491
@<TRIPOS>UNITY_ATOM_ATTR
49 1
charge -1
@<TRIPOS>BOND
     1    35    36    1
     2    36    37    1
     3    36     1    1
     4     1     2   ar
     5     1     5   ar
     6     2    38    1
     7     2     3   ar
     8    38    39    1
     9    39    40    1
    10    40    41    1
    11    40    43    1
    12    41    42    1
    13    43    44    1
    14    44    45    1
    15    44    47    1
    16    45    46    1
    17    47    48    1
    18    48    49   ar
    19    48    50   ar
    20     3     6    1
    21     3     4   ar
    22     6     7   ar
    23     6    12   ar
    24     7     8   ar
    25     8     9   ar
    26     9    10    1
    27     9    11   ar
    28    11    12   ar
    29     4    13    1
    30     4     5   ar
    31    13    14   ar
    32    13    18   ar
    33    14    15   ar
    34    15    16   ar
    35    16    17   ar
    36    17    18   ar
    37     5    19    1
    38    19    20    2
    39    19    21   am
    40    21    23    1
    41    21    22    1
    42    23    24   ar
    43    23    28   ar
    44    24    25   ar
    45    25    26   ar
    46    26    29    1
    47    26    27   ar
    48    29    30    1
    49    29    31    2
    50    29    32    2
    51    30    33    1
    52    30    34    1
    53    27    28   ar



#	Name:			CHEMBL303515
#	Creating user name:	trannguyen
#	Creation time:		Fri Mar 18 16:33:25 2022


#	Modifying user name:	trannguyen
#	Modification time:	Fri Mar 18 16:33:25 2022

@<TRIPOS>MOLECULE
CHEMBL303515
 32 33 0 0 0
SMALL
GASTEIGER

@<TRIPOS>ATOM
      1 C           2.2321   31.4494    8.4851 C.3     1  UNL1        0.1730
      2 C           0.9755   30.5826    8.7177 C.3     1  UNL1        0.0483
      3 C           0.9481   29.8210   10.0505 C.3     1  UNL1        0.0253
      4 C          -0.1583   28.7638   10.0192 C.3     1  UNL1        0.0048
      5 C           2.2866   29.1833   10.2878 C.2     1  UNL1       -0.0305
      6 C           3.4259   29.8392   10.0023 C.2     1  UNL1       -0.0236
      7 C           4.6822   29.1550   10.0927 C.2     1  UNL1       -0.0091
      8 C           5.8493   29.7457    9.8384 C.2     1  UNL1       -0.0268
      9 C           6.0296   31.2064    9.5415 C.3     1  UNL1        0.0224
     10 C           6.8597   31.7831   10.6941 C.3     1  UNL1        0.0047
     11 C           4.7189   31.9760    9.1389 C.3     1  UNL1        0.0116
     12 C           3.3654   31.2931    9.5671 C.3     1  UNL1        0.0624
     13 O           2.7358   31.1619    7.1537 O.3     1  UNL1       -0.4519
     14 C           2.7170   32.1648    6.2281 C.2     1  UNL1        0.3163
     15 O           3.1122   33.3197    6.4283 O.2     1  UNL1       -0.2501
     16 C           2.0947   31.7192    4.9191 C.3     1  UNL1        0.0991
     17 C           1.6954   32.9702    4.1534 C.3     1  UNL1        0.0116
     18 C           4.4448   31.4746    3.9053 C.3     1  UNL1        0.0006
     19 C           3.0840   30.8255    4.1469 C.3     1  UNL1        0.0111
     20 C           4.7741   33.5054    9.4909 C.3     1  UNL1        0.0033
     21 C           3.4846   34.0906   10.0893 C.3     1  UNL1        0.0293
     22 C           3.0488   35.4818    9.6200 C.3     1  UNL1        0.1130
     23 O           2.8204   35.4810    8.1951 O.3     1  UNL1       -0.3844
     24 H           2.6818   34.5552    7.9263 H       1  UNL1        0.2103
     25 C           1.7945   36.0507   10.2865 C.3     1  UNL1        0.0588
     26 C           1.2984   37.4108    9.7501 C.3     1  UNL1        0.1185
     27 O           0.0124   37.2569    9.1425 O.3     1  UNL1       -0.3840
     28 H          -0.5283   38.0400    9.3465 H       1  UNL1        0.2104
     29 C           1.1761   38.4606   10.8492 C.3     1  UNL1        0.0710
     30 C           0.8835   39.8772   10.3973 C.2     1  UNL1        0.0528
     31 O          -0.1695   40.0395    9.7378 O.co2   1  UNL1       -0.5491
     32 O           1.7829   40.7367   10.6522 O.co2   1  UNL1       -0.5491
@<TRIPOS>UNITY_ATOM_ATTR
31 1
charge -1
@<TRIPOS>BOND
     1    18    19    1
     2    16    17    1
     3    16    14    1
     4    16    19    1
     5    14    15    2
     6    14    13    1
     7     1     2    1
     8     1    12    1
     9     1    13    1
    10     2     3    1
    11     3     4    1
    12     3     5    1
    13     5     6    2
    14     6     7    1
    15     6    12    1
    16     7     8    2
    17     8     9    1
    18     9    10    1
    19     9    11    1
    20    11    20    1
    21    11    12    1
    22    20    21    1
    23    21    22    1
    24    22    23    1
    25    22    25    1
    26    23    24    1
    27    25    26    1
    28    26    27    1
    29    26    29    1
    30    27    28    1
    31    29    30    1
    32    30    31   ar
    33    30    32   ar



#	Name:			CHEMBL318707
#	Creating user name:	trannguyen
#	Creation time:		Fri Mar 18 16:33:25 2022


#	Modifying user name:	trannguyen
#	Modification time:	Fri Mar 18 16:33:25 2022

@<TRIPOS>MOLECULE
CHEMBL318707
 30 32 0 0 0
SMALL
GASTEIGER

@<TRIPOS>ATOM
      1 C           2.6999   30.9540    8.2349 C.ar    1  UNL1       -0.0226
      2 C           3.9777   31.2386    8.7467 C.ar    1  UNL1       -0.0013
      3 C           4.9568   31.9914    8.0368 C.ar    1  UNL1        0.0334
      4 C           4.5702   32.4891    6.7558 C.ar    1  UNL1        0.1346
      5 C           3.3185   32.1473    6.1874 C.ar    1  UNL1        0.0111
      6 C           2.3996   31.4147    6.9564 C.ar    1  UNL1       -0.0056
      7 C           6.3200   32.1730    8.6526 C.ar    1  UNL1        0.0030
      8 C           7.3311   31.1953    8.5528 C.ar    1  UNL1        0.0024
      9 C           8.5940   31.3619    9.1415 C.ar    1  UNL1        0.0296
     10 C           8.8696   32.5093    9.8660 C.ar    1  UNL1        0.1401
     11 F          10.0750   32.6696   10.4279 F       1  UNL1       -0.2042
     12 C           7.9042   33.4895   10.0161 C.ar    1  UNL1        0.0296
     13 C           6.6472   33.3211    9.4156 C.ar    1  UNL1        0.0024
     14 C           2.2070   29.9261   10.4739 C.3     1  UNL1        0.0047
     15 C           1.6907   30.1550    9.0504 C.3     1  UNL1        0.0223
     16 C           0.2902   30.7864    9.1005 C.3     1  UNL1        0.0047
     17 C           2.9495   32.4463    4.7404 C.3     1  UNL1        0.0253
     18 C           2.9430   31.1720    3.8962 C.3     1  UNL1        0.0048
     19 C           1.6311   33.2194    4.6135 C.3     1  UNL1        0.0048
     20 O           5.4668   33.2187    5.9982 O.3     1  UNL1       -0.4719
     21 C           6.1987   32.4228    5.0487 C.3     1  UNL1        0.2487
     22 C           6.1391   33.0760    3.6508 C.3     1  UNL1        0.2146
     23 C           7.1943   34.1466    3.3608 C.3     1  UNL1        0.0773
     24 C           8.5218   33.5498    2.9246 C.3     1  UNL1        0.1254
     25 O           9.1520   32.8934    4.0145 O.3     1  UNL1       -0.3838
     26 C           8.3122   32.5875    1.7794 C.3     1  UNL1        0.1388
     27 C           7.2537   31.5638    2.0775 C.2     1  UNL1        0.3195
     28 O           7.3411   30.4201    1.6781 O.2     1  UNL1       -0.2500
     29 O           6.1203   32.0316    2.6455 O.3     1  UNL1       -0.4482
     30 H           9.9231   32.3963    3.6873 H       1  UNL1        0.2104
@<TRIPOS>BOND
     1    14    15    1
     2    15    16    1
     3    15     1    1
     4     1     2   ar
     5     1     6   ar
     6     2     3   ar
     7     3     7    1
     8     3     4   ar
     9     7     8   ar
    10     7    13   ar
    11     8     9   ar
    12     9    10   ar
    13    10    11    1
    14    10    12   ar
    15    12    13   ar
    16     4    20    1
    17     4     5   ar
    18    20    21    1
    19    21    22    1
    20    22    23    1
    21    22    29    1
    22    23    24    1
    23    24    26    1
    24    24    25    1
    25    25    30    1
    26    26    27    1
    27    27    28    2
    28    27    29    1
    29     5    17    1
    30     5     6   ar
    31    17    18    1
    32    17    19    1



#	Name:			CHEMBL321768
#	Creating user name:	trannguyen
#	Creation time:		Fri Mar 18 16:33:25 2022


#	Modifying user name:	trannguyen
#	Modification time:	Fri Mar 18 16:33:25 2022

@<TRIPOS>MOLECULE
CHEMBL321768
 37 38 0 0 0
SMALL
GASTEIGER

@<TRIPOS>ATOM
      1 C           3.7830   32.2198    6.7338 C.ar    1  UNL1        0.0138
      2 C           5.1638   32.2654    6.4109 C.ar    1  UNL1        0.1255
      3 O           5.4697   32.4055    5.0905 O.3     1  UNL1       -0.5062
      4 C           6.2499   32.1794    7.3473 C.ar    1  UNL1        0.0098
      5 C           5.9231   32.3859    8.7179 C.ar    1  UNL1        0.0104
      6 C           4.5366   32.5527    9.0031 C.ar    1  UNL1        0.1341
      7 C           3.5324   32.0413    8.1134 C.ar    1  UNL1        0.0326
      8 H           5.7618   33.3304    5.0062 H       1  UNL1        0.2922
      9 C           2.5329   31.0345    8.6816 C.ar    1  UNL1        0.0028
     10 C           2.9912   29.9081    9.3986 C.ar    1  UNL1        0.0024
     11 C           2.1724   29.0480   10.1361 C.ar    1  UNL1        0.0296
     12 C           0.8127   29.1809   10.0117 C.ar    1  UNL1        0.1401
     13 F          -0.0068   28.3419   10.6547 F       1  UNL1       -0.2042
     14 C           0.2950   30.1488    9.1695 C.ar    1  UNL1        0.0296
     15 C           1.1480   31.0499    8.5096 C.ar    1  UNL1        0.0024
     16 C           2.5934   33.5866    4.8357 C.3     1  UNL1        0.0048
     17 C           2.6824   32.2522    5.6238 C.3     1  UNL1        0.0254
     18 C           2.7343   31.2118    4.4674 C.3     1  UNL1        0.0048
     19 C           7.6968   31.8833    6.8729 C.3     1  UNL1        0.0251
     20 C           8.6695   33.0537    7.1027 C.3     1  UNL1        0.0048
     21 C           8.3680   30.6181    7.4381 C.3     1  UNL1        0.0048
     22 C           6.9730   32.2592    9.8672 C.3     1  UNL1        0.0251
     23 C           7.3112   33.4788   10.7369 C.3     1  UNL1        0.0048
     24 C           6.6287   31.0926   10.8260 C.3     1  UNL1        0.0048
     25 O           4.2484   33.4575   10.0181 O.3     1  UNL1       -0.4732
     26 C           4.4541   34.8601    9.8534 C.3     1  UNL1        0.2344
     27 C           3.1439   35.5946    9.4890 C.3     1  UNL1        0.1564
     28 O           2.9737   35.3241    8.0951 O.3     1  UNL1       -0.3806
     29 H           3.2579   36.1035    7.5959 H       1  UNL1        0.2105
     30 C           1.8570   35.1916   10.2491 C.3     1  UNL1        0.0627
     31 C           0.7505   36.2488   10.2410 C.3     1  UNL1        0.1186
     32 O          -0.3419   35.6631   10.9418 O.3     1  UNL1       -0.3840
     33 H          -0.8823   36.4368   11.2490 H       1  UNL1        0.2104
     34 C           1.2171   37.5268   10.9498 C.3     1  UNL1        0.0710
     35 C           0.8848   38.7729   10.1346 C.2     1  UNL1        0.0528
     36 O           1.0439   39.8605   10.6906 O.co2   1  UNL1       -0.5491
     37 O           0.5033   38.5118    8.9196 O.co2   1  UNL1       -0.5491
@<TRIPOS>UNITY_ATOM_ATTR
36 1
charge -1
@<TRIPOS>BOND
     1    16    17    1
     2    17    18    1
     3    17     1    1
     4     1     2   ar
     5     1     7   ar
     6     2     3    1
     7     2     4   ar
     8     3     8    1
     9     4    19    1
    10     4     5   ar
    11    19    20    1
    12    19    21    1
    13     5    22    1
    14     5     6   ar
    15    22    23    1
    16    22    24    1
    17     6    25    1
    18     6     7   ar
    19    25    26    1
    20    26    27    1
    21    27    28    1
    22    27    30    1
    23    28    29    1
    24    30    31    1
    25    31    32    1
    26    31    34    1
    27    32    33    1
    28    34    35    1
    29    35    36   ar
    30    35    37   ar
    31     7     9    1
    32     9    10   ar
    33     9    15   ar
    34    10    11   ar
    35    11    12   ar
    36    12    13    1
    37    12    14   ar
    38    14    15   ar



#	Name:			CHEMBL329307
#	Creating user name:	trannguyen
#	Creation time:		Fri Mar 18 16:33:25 2022


#	Modifying user name:	trannguyen
#	Modification time:	Fri Mar 18 16:33:25 2022

@<TRIPOS>MOLECULE
CHEMBL329307
 36 38 0 0 0
SMALL
GASTEIGER

@<TRIPOS>ATOM
      1 C           3.8471   30.1887    9.5134 C.ar    1  UNL1        0.0115
      2 C           5.2826   30.2430    9.4776 C.ar    1  UNL1       -0.0013
      3 C           6.0064   31.2253    8.7922 C.ar    1  UNL1       -0.0001
      4 C           5.2111   32.0788    8.0212 C.ar    1  UNL1        0.0030
      5 C           3.8038   31.9437    7.8284 C.ar    1  UNL1        0.0337
      6 C           3.0842   31.1510    8.7680 C.ar    1  UNL1        0.1345
      7 C           7.5119   31.3105    8.7706 C.ar    1  UNL1        0.0001
      8 C           8.2361   32.0729    9.7120 C.ar    1  UNL1        0.0023
      9 C           9.6394   32.1074    9.7305 C.ar    1  UNL1        0.0296
     10 C          10.3602   31.3795    8.8001 C.ar    1  UNL1        0.1401
     11 F          11.6987   31.4012    8.8269 F       1  UNL1       -0.2042
     12 C           9.7037   30.6279    7.8444 C.ar    1  UNL1        0.0296
     13 C           8.3011   30.5996    7.8303 C.ar    1  UNL1        0.0023
     14 C           3.3131   32.2779    6.4389 C.ar    1  UNL1        0.0030
     15 C           4.1693   32.7013    5.3928 C.ar    1  UNL1        0.0024
     16 C           3.7699   32.6871    4.0472 C.ar    1  UNL1        0.0296
     17 C           2.4653   32.3745    3.7176 C.ar    1  UNL1        0.1401
     18 F           2.1048   32.2684    2.4339 F       1  UNL1       -0.2042
     19 C           1.5826   31.9944    4.6992 C.ar    1  UNL1        0.0296
     20 C           2.0570   31.8599    6.0010 C.ar    1  UNL1        0.0024
     21 C           1.8098   28.6996   10.1209 C.3     1  UNL1        0.0048
     22 C           3.2730   29.0472   10.3750 C.3     1  UNL1        0.0253
     23 C           4.0730   27.7266   10.2233 C.3     1  UNL1        0.0048
     24 O           1.9603   31.6907    9.4335 O.3     1  UNL1       -0.4732
     25 C           1.9084   32.8573   10.2927 C.3     1  UNL1        0.2344
     26 C           0.7017   33.8928   10.0914 C.3     1  UNL1        0.1564
     27 O          -0.3852   33.4075   10.9078 O.3     1  UNL1       -0.3806
     28 H          -1.1891   33.8199   10.5397 H       1  UNL1        0.2105
     29 C           1.0802   35.3509   10.5316 C.3     1  UNL1        0.0627
     30 C           2.1611   36.3352    9.8796 C.3     1  UNL1        0.1186
     31 O           2.6427   35.8986    8.5920 O.3     1  UNL1       -0.3840
     32 H           2.9865   36.7407    8.1696 H       1  UNL1        0.2104
     33 C           1.4361   37.6795    9.6279 C.3     1  UNL1        0.0710
     34 C           0.8210   38.5631   10.7187 C.2     1  UNL1        0.0528
     35 O           1.5909   38.6665   11.7768 O.co2   1  UNL1       -0.5491
     36 O          -0.2604   39.1193   10.4489 O.co2   1  UNL1       -0.5491
@<TRIPOS>UNITY_ATOM_ATTR
35 1
charge -1
@<TRIPOS>BOND
     1    21    22    1
     2    22    23    1
     3    22     1    1
     4     1     2   ar
     5     1     6   ar
     6     2     3   ar
     7     3     7    1
     8     3     4   ar
     9     7     8   ar
    10     7    13   ar
    11     8     9   ar
    12     9    10   ar
    13    10    11    1
    14    10    12   ar
    15    12    13   ar
    16     4     5   ar
    17     5    14    1
    18     5     6   ar
    19    14    15   ar
    20    14    20   ar
    21    15    16   ar
    22    16    17   ar
    23    17    18    1
    24    17    19   ar
    25    19    20   ar
    26     6    24    1
    27    24    25    1
    28    25    26    1
    29    26    27    1
    30    26    29    1
    31    27    28    1
    32    29    30    1
    33    30    31    1
    34    30    33    1
    35    31    32    1
    36    33    34    1
    37    34    35   ar
    38    34    36   ar



#	Name:			CHEMBL333760
#	Creating user name:	trannguyen
#	Creation time:		Fri Mar 18 16:33:25 2022


#	Modifying user name:	trannguyen
#	Modification time:	Fri Mar 18 16:33:25 2022

@<TRIPOS>MOLECULE
CHEMBL333760
 36 38 0 0 0
SMALL
GASTEIGER

@<TRIPOS>ATOM
      1 C           3.7200   31.9765    5.4812 C.ar    1  UNL1        0.1237
      2 N           4.7670   32.4613    4.8560 N.ar    1  UNL1       -0.2306
      3 C           5.7181   32.7116    5.8123 C.ar    1  UNL1        0.0986
      4 C           5.2449   32.4165    7.1000 C.ar    1  UNL1        0.0826
      5 N           3.9250   31.9461    6.8672 N.ar    1  UNL1       -0.2925
      6 C           7.0371   33.1924    5.3950 C.ar    1  UNL1        0.0193
      7 C           7.1482   34.3781    4.6466 C.ar    1  UNL1        0.0038
      8 C           8.4004   34.8378    4.2185 C.ar    1  UNL1        0.0297
      9 C           9.5470   34.1377    4.5727 C.ar    1  UNL1        0.1401
     10 F          10.7475   34.5774    4.1749 F       1  UNL1       -0.2042
     11 C           9.4648   32.9753    5.3214 C.ar    1  UNL1        0.0297
     12 C           8.2111   32.4820    5.6806 C.ar    1  UNL1        0.0038
     13 C           5.9252   32.4765    8.4326 C.ar    1  UNL1        0.0178
     14 C           6.4818   31.3382    9.0453 C.ar    1  UNL1        0.0038
     15 C           7.0347   31.3804   10.3289 C.ar    1  UNL1        0.0297
     16 C           7.2303   32.6049   10.9383 C.ar    1  UNL1        0.1401
     17 F           7.8493   32.6634   12.1232 F       1  UNL1       -0.2042
     18 C           6.7976   33.7680   10.3249 C.ar    1  UNL1        0.0297
     19 C           6.0751   33.6899    9.1270 C.ar    1  UNL1        0.0038
     20 C           1.5276   32.8504    4.6123 C.3     1  UNL1        0.0079
     21 C           2.4135   31.6138    4.7957 C.3     1  UNL1        0.0573
     22 C           2.6514   30.9588    3.4312 C.3     1  UNL1        0.0079
     23 C           2.9567   31.5006    7.7841 C.2     1  UNL1        0.0790
     24 C           1.9813   32.2090    8.3782 C.2     1  UNL1        0.0216
     25 C           1.0703   31.7241    9.4643 C.3     1  UNL1        0.1364
     26 O           0.1099   32.7471    9.7018 O.3     1  UNL1       -0.3799
     27 H           0.5880   33.5983    9.6813 H       1  UNL1        0.2108
     28 C           0.3757   30.3884    9.1587 C.3     1  UNL1        0.0636
     29 C           0.6222   29.3174   10.2180 C.3     1  UNL1        0.1244
     30 O          -0.5577   28.5240   10.4215 O.3     1  UNL1       -0.3838
     31 H          -1.3263   29.1434   10.4384 H       1  UNL1        0.2104
     32 C           1.7429   28.3791    9.7713 C.3     1  UNL1        0.1385
     33 C           2.4093   27.6796   10.9435 C.2     1  UNL1        0.3163
     34 O           1.9195   27.6469   12.0380 O.2     1  UNL1       -0.2502
     35 O           3.6358   27.1649   10.6778 O.3     1  UNL1       -0.4801
     36 H           3.9198   27.3547    9.7593 H       1  UNL1        0.2951
@<TRIPOS>BOND
     1    20    21    1
     2    21    22    1
     3    21     1    1
     4     1     2   ar
     5     1     5   ar
     6     2     3   ar
     7     3     6    1
     8     3     4   ar
     9     6     7   ar
    10     6    12   ar
    11     7     8   ar
    12     8     9   ar
    13     9    10    1
    14     9    11   ar
    15    11    12   ar
    16     4    13    1
    17     4     5   ar
    18    13    14   ar
    19    13    19   ar
    20    14    15   ar
    21    15    16   ar
    22    16    17    1
    23    16    18   ar
    24    18    19   ar
    25     5    23    1
    26    23    24    2
    27    24    25    1
    28    25    26    1
    29    25    28    1
    30    26    27    1
    31    28    29    1
    32    29    30    1
    33    29    32    1
    34    30    31    1
    35    32    33    1
    36    33    34    2
    37    33    35    1
    38    35    36    1



#	Name:			CHEMBL345375
#	Creating user name:	trannguyen
#	Creation time:		Fri Mar 18 16:33:25 2022


#	Modifying user name:	trannguyen
#	Modification time:	Fri Mar 18 16:33:25 2022

@<TRIPOS>MOLECULE
CHEMBL345375
 29 30 0 0 0
SMALL
GASTEIGER

@<TRIPOS>ATOM
      1 C           2.8813   32.3680    4.0943 C.3     1  UNL1        0.0500
      2 C           3.9847   32.3550    5.1052 C.ar    1  UNL1        0.0374
      3 C           3.9093   32.3245    6.4972 C.ar    1  UNL1        0.0129
      4 C           5.2473   32.3882    7.0191 C.ar    1  UNL1        0.0183
      5 C           6.0749   32.4225    5.9086 C.ar    1  UNL1        0.0756
      6 N           5.3254   32.4397    4.7539 N.ar    1  UNL1       -0.3314
      7 C           5.7944   32.3811    8.3876 C.ar    1  UNL1        0.0016
      8 C           6.1575   31.1944    9.0450 C.ar    1  UNL1        0.0024
      9 C           6.7613   31.2294   10.3135 C.ar    1  UNL1        0.0296
     10 C           6.9846   32.4470   10.9421 C.ar    1  UNL1        0.1401
     11 F           7.5761   32.4793   12.1435 F       1  UNL1       -0.2042
     12 C           6.5896   33.6304   10.3405 C.ar    1  UNL1        0.0296
     13 C           5.9947   33.5960    9.0739 C.ar    1  UNL1        0.0024
     14 C           5.8968   32.6324    3.4088 C.3     1  UNL1        0.0853
     15 C           6.6259   33.9760    3.2815 C.3     1  UNL1        0.0245
     16 C           6.8502   31.5160    2.9533 C.3     1  UNL1        0.0245
     17 C           2.6834   32.2596    7.2438 C.2     1  UNL1       -0.0010
     18 C           2.3739   31.3148    8.1486 C.2     1  UNL1        0.0026
     19 C           1.1751   31.2907    9.0474 C.3     1  UNL1        0.1349
     20 O           0.2701   32.2029    8.4173 O.3     1  UNL1       -0.3800
     21 H          -0.6361   31.8807    8.5534 H       1  UNL1        0.2108
     22 C           0.4913   29.9092    9.2061 C.3     1  UNL1        0.0634
     23 C           0.9661   28.9732   10.3299 C.3     1  UNL1        0.1188
     24 O          -0.1804   28.2854   10.8454 O.3     1  UNL1       -0.3840
     25 H           0.1200   27.4435   11.2388 H       1  UNL1        0.2104
     26 C           2.0385   27.9587    9.9955 C.3     1  UNL1        0.0710
     27 C           3.4547   28.3132   10.3967 C.2     1  UNL1        0.0528
     28 O           3.6232   29.4413   10.9141 O.co2   1  UNL1       -0.5491
     29 O           4.2757   27.3486   10.4169 O.co2   1  UNL1       -0.5491
@<TRIPOS>UNITY_ATOM_ATTR
28 1
charge -1
@<TRIPOS>BOND
     1     1     2    1
     2     2     3   ar
     3     2     6   ar
     4     3    17    1
     5     3     4   ar
     6    17    18    2
     7    18    19    1
     8    19    20    1
     9    19    22    1
    10    20    21    1
    11    22    23    1
    12    23    24    1
    13    23    26    1
    14    24    25    1
    15    26    27    1
    16    27    28   ar
    17    27    29   ar
    18     4     7    1
    19     4     5   ar
    20     7     8   ar
    21     7    13   ar
    22     8     9   ar
    23     9    10   ar
    24    10    11    1
    25    10    12   ar
    26    12    13   ar
    27     5     6   ar
    28     6    14    1
    29    14    15    1
    30    14    16    1



#	Name:			CHEMBL389216
#	Creating user name:	trannguyen
#	Creation time:		Fri Mar 18 16:33:25 2022


#	Modifying user name:	trannguyen
#	Modification time:	Fri Mar 18 16:33:25 2022

@<TRIPOS>MOLECULE
CHEMBL389216
 44 48 0 0 0
SMALL
GASTEIGER

@<TRIPOS>ATOM
      1 N           6.7944   32.7228    8.1986 N.ar    1  UNL1       -0.3288
      2 C           7.5674   33.1854    7.1285 C.ar    1  UNL1        0.0372
      3 C           6.7855   33.1331    5.9577 C.ar    1  UNL1        0.0133
      4 C           5.4801   32.6458    6.3690 C.ar    1  UNL1        0.0230
      5 C           4.1976   32.3409    5.7131 C.ar    1  UNL1        0.0178
      6 C           3.9523   32.6301    4.3620 C.ar    1  UNL1        0.0015
      7 C           2.7360   32.3509    3.7421 C.ar    1  UNL1        0.0001
      8 C           1.6753   31.9032    4.5032 C.ar    1  UNL1        0.0015
      9 C           1.8703   31.6268    5.8584 C.ar    1  UNL1        0.0176
     10 C           3.1372   31.7840    6.4684 C.ar    1  UNL1        0.0669
     11 N           3.2932   31.5773    7.8672 N.ar    1  UNL1       -0.2733
     12 C           4.3399   32.2070    8.5848 C.ar    1  UNL1        0.2805
     13 O           4.2932   32.5067    9.7319 O.2     1  UNL1       -0.2650
     14 C           5.4988   32.5402    7.7662 C.ar    1  UNL1        0.1169
     15 C           7.3216   33.5010    4.6179 C.ar    1  UNL1        0.0013
     16 C           7.4986   34.8375    4.2288 C.ar    1  UNL1        0.0023
     17 C           8.1106   35.1790    3.0126 C.ar    1  UNL1        0.0296
     18 C           8.3630   34.1933    2.0745 C.ar    1  UNL1        0.1401
     19 F           8.8544   34.5230    0.8745 F       1  UNL1       -0.2042
     20 C           8.1105   32.8705    2.3764 C.ar    1  UNL1        0.0296
     21 C           7.6844   32.5303    3.6659 C.ar    1  UNL1        0.0023
     22 C           2.3552   30.7389    8.5737 C.ar    1  UNL1        0.0677
     23 C           1.0015   31.0944    8.6682 C.ar    1  UNL1        0.0177
     24 C           0.1024   30.2761    9.3664 C.ar    1  UNL1        0.0024
     25 C           0.5517   29.1215   10.0045 C.ar    1  UNL1        0.0115
     26 C           1.9039   28.7930    9.9543 C.ar    1  UNL1        0.0591
     27 CL          2.4695   27.4048   10.8012 Cl      1  UNL1       -0.0822
     28 C           2.8034   29.5913    9.2405 C.ar    1  UNL1        0.0290
     29 C           7.0629   33.5718   10.5536 C.3     1  UNL1        0.0245
     30 C           7.3575   32.4560    9.5447 C.3     1  UNL1        0.0854
     31 C           7.0888   31.0593   10.1040 C.3     1  UNL1        0.0245
     32 C           9.0328   33.5349    7.3261 C.3     1  UNL1        0.0463
     33 C           9.9631   32.6903    6.4601 C.3     1  UNL1        0.0355
     34 C          10.6097   31.5323    7.2356 C.3     1  UNL1        0.1133
     35 O          11.8002   31.1829    6.5341 O.3     1  UNL1       -0.3844
     36 H          12.2759   30.5456    7.1111 H       1  UNL1        0.2103
     37 C          10.8925   31.9034    8.7002 C.3     1  UNL1        0.0588
     38 C          11.4273   30.7370    9.5453 C.3     1  UNL1        0.1185
     39 O          11.2622   29.5349    8.7747 O.3     1  UNL1       -0.3840
     40 H          11.8384   28.8592    9.1741 H       1  UNL1        0.2104
     41 C          12.8908   30.9233    9.9407 C.3     1  UNL1        0.0710
     42 C          13.8711   30.0912    9.1027 C.2     1  UNL1        0.0528
     43 O          14.2587   28.9925    9.5949 O.co2   1  UNL1       -0.5491
     44 O          14.2046   30.6215    8.0075 O.co2   1  UNL1       -0.5491
@<TRIPOS>UNITY_ATOM_ATTR
43 1
charge -1
@<TRIPOS>BOND
     1    29    30    1
     2    30    31    1
     3    30     1    1
     4     1     2   ar
     5     1    14   ar
     6     2    32    1
     7     2     3   ar
     8    32    33    1
     9    33    34    1
    10    34    35    1
    11    34    37    1
    12    35    36    1
    13    37    38    1
    14    38    39    1
    15    38    41    1
    16    39    40    1
    17    41    42    1
    18    42    43   ar
    19    42    44   ar
    20     3    15    1
    21     3     4   ar
    22    15    16   ar
    23    15    21   ar
    24    16    17   ar
    25    17    18   ar
    26    18    19    1
    27    18    20   ar
    28    20    21   ar
    29     4     5   ar
    30     4    14   ar
    31     5     6   ar
    32     5    10   ar
    33     6     7   ar
    34     7     8   ar
    35     8     9   ar
    36     9    10   ar
    37    10    11   ar
    38    11    22    1
    39    11    12   ar
    40    22    23   ar
    41    22    28   ar
    42    23    24   ar
    43    24    25   ar
    44    25    26   ar
    45    26    27    1
    46    26    28   ar
    47    12    13    2
    48    12    14   ar



#	Name:			CHEMBL389217
#	Creating user name:	trannguyen
#	Creation time:		Fri Mar 18 16:33:25 2022


#	Modifying user name:	trannguyen
#	Modification time:	Fri Mar 18 16:33:25 2022

@<TRIPOS>MOLECULE
CHEMBL389217
 44 48 0 0 0
SMALL
GASTEIGER

@<TRIPOS>ATOM
      1 N           7.1301   32.3361    8.7087 N.ar    1  UNL1       -0.3288
      2 C           8.0423   32.1042    7.1056 C.ar    1  UNL1        0.0372
      3 C           6.5624   32.2876    5.5910 C.ar    1  UNL1        0.0133
      4 C           5.0510   32.4370    6.5183 C.ar    1  UNL1        0.0230
      5 C           3.8711   32.6213    5.9792 C.ar    1  UNL1        0.0178
      6 C           3.7882   33.2622    4.7717 C.ar    1  UNL1        0.0015
      7 C           2.7980   32.8029    3.9744 C.ar    1  UNL1        0.0001
      8 C           2.0170   31.7665    4.4989 C.ar    1  UNL1        0.0015
      9 C           2.2013   31.2054    5.7960 C.ar    1  UNL1        0.0176
     10 C           3.1401   31.6981    6.6345 C.ar    1  UNL1        0.0669
     11 N           3.4445   31.3798    8.0580 N.ar    1  UNL1       -0.2734
     12 C           4.2323   32.1494    8.9305 C.ar    1  UNL1        0.2805
     13 O           4.0927   32.5121   10.0919 O.2     1  UNL1       -0.2650
     14 C           5.3205   32.4741    8.2945 C.ar    1  UNL1        0.1169
     15 C           6.8857   32.7468    3.8335 C.ar    1  UNL1        0.0013
     16 C           7.1838   33.9976    3.3178 C.ar    1  UNL1        0.0023
     17 C           7.8944   34.1577    2.1231 C.ar    1  UNL1        0.0296
     18 C           8.0714   33.0847    1.2436 C.ar    1  UNL1        0.1401
     19 F           8.5254   33.3150    0.0246 F       1  UNL1       -0.2042
     20 C           7.7003   31.8127    1.4934 C.ar    1  UNL1        0.0296
     21 C           7.1363   31.6814    2.6822 C.ar    1  UNL1        0.0023
     22 C           2.4272   30.8027    8.6908 C.ar    1  UNL1        0.0670
     23 C           1.2550   31.5402    8.6368 C.ar    1  UNL1        0.0199
     24 C           0.1569   30.9320    9.1260 C.ar    1  UNL1        0.0311
     25 C           0.2901   29.6481    9.6425 C.ar    1  UNL1        0.1402
     26 F          -0.8171   29.0132   10.0219 F       1  UNL1       -0.2042
     27 C           1.5200   28.9925    9.7676 C.ar    1  UNL1        0.0311
     28 C           2.6503   29.5939    9.3045 C.ar    1  UNL1        0.0199
     29 C           7.3502   34.7642    9.8034 C.3     1  UNL1        0.0245
     30 C           7.6424   33.2509    9.7660 C.3     1  UNL1        0.0854
     31 C           7.5289   32.8404   11.2576 C.3     1  UNL1        0.0245
     32 C           9.7217   32.5209    7.0890 C.3     1  UNL1        0.0463
     33 C          10.5677   31.3280    7.2940 C.3     1  UNL1        0.0355
     34 C          10.5642   30.7720    8.6861 C.3     1  UNL1        0.1133
     35 O          11.3346   29.6074    8.7965 O.3     1  UNL1       -0.3844
     36 H          11.1451   29.2975    9.7017 H       1  UNL1        0.2103
     37 C          11.1215   31.7286    9.6211 C.3     1  UNL1        0.0588
     38 C          12.5240   31.6127    9.4413 C.3     1  UNL1        0.1185
     39 O          12.6196   30.9844   11.1168 O.3     1  UNL1       -0.3840
     40 H          12.7386   29.9706   11.0799 H       1  UNL1        0.2104
     41 C          14.1778   31.5607    8.1096 C.3     1  UNL1        0.0710
     42 C          15.1701   30.2509    9.0839 C.2     1  UNL1        0.0528
     43 O          16.2065   30.8618    9.7838 O.co2   1  UNL1       -0.5491
     44 O          14.1477   28.7779    9.3066 O.co2   1  UNL1       -0.5491
@<TRIPOS>UNITY_ATOM_ATTR
43 1
charge -1
@<TRIPOS>BOND
     1    29    30    1
     2    30    31    1
     3    30     1    1
     4     1     2   ar
     5     1    14   ar
     6     2    32    1
     7     2     3   ar
     8    32    33    1
     9    33    34    1
    10    34    35    1
    11    34    37    1
    12    35    36    1
    13    37    38    1
    14    38    39    1
    15    38    41    1
    16    39    40    1
    17    41    42    1
    18    42    43   ar
    19    42    44   ar
    20     3    15    1
    21     3     4   ar
    22    15    16   ar
    23    15    21   ar
    24    16    17   ar
    25    17    18   ar
    26    18    19    1
    27    18    20   ar
    28    20    21   ar
    29     4     5   ar
    30     4    14   ar
    31     5     6   ar
    32     5    10   ar
    33     6     7   ar
    34     7     8   ar
    35     8     9   ar
    36     9    10   ar
    37    10    11   ar
    38    11    22    1
    39    11    12   ar
    40    22    23   ar
    41    22    28   ar
    42    23    24   ar
    43    24    25   ar
    44    25    26    1
    45    25    27   ar
    46    27    28   ar
    47    12    13    2
    48    12    14   ar



#	Name:			CHEMBL389441
#	Creating user name:	trannguyen
#	Creation time:		Fri Mar 18 16:33:25 2022


#	Modifying user name:	trannguyen
#	Modification time:	Fri Mar 18 16:33:25 2022

@<TRIPOS>MOLECULE
CHEMBL389441
 44 48 0 0 0
SMALL
GASTEIGER

@<TRIPOS>ATOM
      1 N           4.8340   32.8451    4.8467 N.ar    1  UNL1       -0.3288
      2 C           6.2246   32.8621    4.3495 C.ar    1  UNL1        0.0372
      3 C           7.0526   32.7155    5.6034 C.ar    1  UNL1        0.0133
      4 C           6.0779   33.1167    6.6543 C.ar    1  UNL1        0.0230
      5 C           6.1982   33.2110    8.1158 C.ar    1  UNL1        0.0175
      6 C           7.1092   34.0813    8.7387 C.ar    1  UNL1        0.0015
      7 C           7.6362   33.7169    9.9906 C.ar    1  UNL1        0.0001
      8 C           7.2981   32.4787   10.5517 C.ar    1  UNL1        0.0015
      9 C           6.2937   31.7030    9.9741 C.ar    1  UNL1        0.0173
     10 C           5.6127   32.1739    8.8543 C.ar    1  UNL1        0.0628
     11 N           4.3797   31.6014    8.4042 N.ar    1  UNL1       -0.2902
     12 C           3.9888   31.8555    7.1007 C.ar    1  UNL1        0.2769
     13 O           2.8434   31.3796    6.7159 O.2     1  UNL1       -0.2654
     14 C           4.8908   32.5438    6.2077 C.ar    1  UNL1        0.1165
     15 C           8.5679   32.2424    6.0358 C.ar    1  UNL1        0.0013
     16 C           9.7106   32.7919    5.3678 C.ar    1  UNL1        0.0023
     17 C          11.1077   32.5742    5.5354 C.ar    1  UNL1        0.0296
     18 C          11.4921   31.7413    6.5297 C.ar    1  UNL1        0.1401
     19 F          12.7976   31.5556    6.7843 F       1  UNL1       -0.2042
     20 C          10.4806   31.2136    7.3280 C.ar    1  UNL1        0.0296
     21 C           9.0476   31.4859    7.1087 C.ar    1  UNL1        0.0023
     22 C           2.6551   32.2227    3.6731 C.3     1  UNL1        0.0245
     23 C           3.5554   33.2925    4.2211 C.3     1  UNL1        0.0854
     24 C           2.4993   34.0904    5.0037 C.3     1  UNL1        0.0245
     25 C           6.5932   32.8248    2.7161 C.3     1  UNL1        0.0463
     26 C           7.5032   31.7257    1.9661 C.3     1  UNL1        0.0355
     27 C           8.3237   31.9406    0.6358 C.3     1  UNL1        0.1133
     28 O           7.5921   31.3706   -0.4415 O.3     1  UNL1       -0.3844
     29 H           6.9138   32.0136   -0.6980 H       1  UNL1        0.2103
     30 C           8.7932   33.3835    0.2651 C.3     1  UNL1        0.0588
     31 C           9.5617   33.6715   -1.0474 C.3     1  UNL1        0.1185
     32 O          10.1524   32.4069   -1.3934 O.3     1  UNL1       -0.3840
     33 H          10.3121   32.3802   -2.3500 H       1  UNL1        0.2104
     34 C           9.0499   34.2566   -2.3613 C.3     1  UNL1        0.0710
     35 C           8.0191   33.7949   -3.3899 C.2     1  UNL1        0.0528
     36 O           7.5356   34.6874   -4.1200 O.co2   1  UNL1       -0.5491
     37 O           7.5310   32.6501   -3.0924 O.co2   1  UNL1       -0.5491
     38 C           3.3174   31.3866    9.4122 C.3     1  UNL1        0.1358
     39 C           3.0665   30.0208   10.0033 C.ar    1  UNL1        0.0005
     40 C           1.7913   29.6745   10.4856 C.ar    1  UNL1       -0.0024
     41 C           1.4893   28.3462   10.8156 C.ar    1  UNL1       -0.0003
     42 C           2.4129   27.3351   10.5606 C.ar    1  UNL1       -0.0000
     43 C           3.6877   27.6724   10.1252 C.ar    1  UNL1       -0.0003
     44 C           4.0307   29.0116    9.9435 C.ar    1  UNL1       -0.0024
@<TRIPOS>UNITY_ATOM_ATTR
36 1
charge -1
@<TRIPOS>BOND
     1    22    23    1
     2    23    24    1
     3    23     1    1
     4     1     2   ar
     5     1    14   ar
     6     2    25    1
     7     2     3   ar
     8    25    26    1
     9    26    27    1
    10    27    28    1
    11    27    30    1
    12    28    29    1
    13    30    31    1
    14    31    32    1
    15    31    34    1
    16    32    33    1
    17    34    35    1
    18    35    36   ar
    19    35    37   ar
    20     3    15    1
    21     3     4   ar
    22    15    16   ar
    23    15    21   ar
    24    16    17   ar
    25    17    18   ar
    26    18    19    1
    27    18    20   ar
    28    20    21   ar
    29     4     5   ar
    30     4    14   ar
    31     5     6   ar
    32     5    10   ar
    33     6     7   ar
    34     7     8   ar
    35     8     9   ar
    36     9    10   ar
    37    10    11   ar
    38    11    38    1
    39    11    12   ar
    40    38    39    1
    41    39    40   ar
    42    39    44   ar
    43    40    41   ar
    44    41    42   ar
    45    42    43   ar
    46    43    44   ar
    47    12    13    2
    48    12    14   ar



#	Name:			CHEMBL394937
#	Creating user name:	trannguyen
#	Creation time:		Fri Mar 18 16:33:25 2022


#	Modifying user name:	trannguyen
#	Modification time:	Fri Mar 18 16:33:25 2022

@<TRIPOS>MOLECULE
CHEMBL394937
 44 47 0 0 0
SMALL
GASTEIGER

@<TRIPOS>ATOM
      1 N           7.5339   32.8197    8.7435 N.ar    1  UNL1       -0.3290
      2 C           6.3110   32.1533    8.3973 C.ar    1  UNL1        0.0371
      3 C           5.9699   32.8118    7.1634 C.ar    1  UNL1        0.0132
      4 C           7.2196   33.4672    6.7171 C.ar    1  UNL1        0.0214
      5 C           7.6742   33.9863    7.9398 C.ar    1  UNL1        0.1139
      6 C           4.8019   32.4381    6.3035 C.ar    1  UNL1        0.0013
      7 C           5.0380   32.0002    5.0984 C.ar    1  UNL1        0.0023
      8 C           3.9126   31.3832    4.0526 C.ar    1  UNL1        0.0296
      9 C           2.6795   31.4188    4.1347 C.ar    1  UNL1        0.1401
     10 F           1.8727   31.1659    3.1038 F       1  UNL1       -0.2042
     11 C           2.4093   32.1754    5.2849 C.ar    1  UNL1        0.0296
     12 C           3.4131   32.5886    6.3716 C.ar    1  UNL1        0.0023
     13 C           7.7551   33.6887    5.3412 C.ar    1  UNL1        0.0016
     14 C           8.4025   32.7386    4.5520 C.ar    1  UNL1        0.0000
     15 C           9.0091   33.0493    3.3238 C.ar    1  UNL1        0.0000
     16 C           8.7613   34.2560    2.7031 C.ar    1  UNL1        0.0000
     17 C           7.9054   35.1362    3.3322 C.ar    1  UNL1        0.0000
     18 C           7.4395   34.8354    4.6328 C.ar    1  UNL1        0.0000
     19 C           8.2579   35.2630    8.4253 C.2     1  UNL1        0.2654
     20 O           9.4492   35.5273    8.2466 O.2     1  UNL1       -0.2682
     21 N           7.4470   36.1037    9.1913 N.am    1  UNL1       -0.2792
     22 H           6.8332   35.5188    9.7394 H       1  UNL1        0.1552
     23 C           7.9719   37.1556    9.9838 C.ar    1  UNL1        0.0506
     24 C           8.3732   36.8274   11.2796 C.ar    1  UNL1        0.0147
     25 C           8.9672   37.7852   12.0987 C.ar    1  UNL1        0.0013
     26 C           9.0859   39.1010   11.6599 C.ar    1  UNL1        0.0001
     27 C           8.5888   39.4604   10.4054 C.ar    1  UNL1        0.0013
     28 C           8.0324   38.4868    9.5587 C.ar    1  UNL1        0.0147
     29 C           9.5028   31.5136    7.9807 C.3     1  UNL1        0.0245
     30 C           8.7403   32.0775    9.1967 C.3     1  UNL1        0.0854
     31 C           9.6872   32.8094   10.1609 C.3     1  UNL1        0.0245
     32 C           5.7073   31.0907    9.4132 C.3     1  UNL1        0.0463
     33 C           4.5159   30.1099    9.2006 C.3     1  UNL1        0.0355
     34 C           3.7468   29.3360   10.3771 C.3     1  UNL1        0.1133
     35 O           2.7962   30.2485   11.0069 O.3     1  UNL1       -0.3844
     36 H           1.9009   30.0162   10.6801 H       1  UNL1        0.2103
     37 C           3.0490   27.9917   10.1087 C.3     1  UNL1        0.0588
     38 C           1.6422   27.9901   10.7316 C.3     1  UNL1        0.1185
     39 O           2.0185   27.9146   12.2607 O.3     1  UNL1       -0.3840
     40 H           1.8489   28.6436   12.9181 H       1  UNL1        0.2104
     41 C           0.4139   29.0949    9.7737 C.3     1  UNL1        0.0710
     42 C           0.4751   30.6610    8.7302 C.2     1  UNL1        0.0528
     43 O          -0.1542   31.6682    9.0568 O.co2   1  UNL1       -0.5491
     44 O           1.1352   30.3984    7.6769 O.co2   1  UNL1       -0.5491
@<TRIPOS>UNITY_ATOM_ATTR
43 1
charge -1
@<TRIPOS>BOND
     1    29    30    1
     2    30    31    1
     3    30     1    1
     4     1     2   ar
     5     1     5   ar
     6     2    32    1
     7     2     3   ar
     8    32    33    1
     9    33    34    1
    10    34    35    1
    11    34    37    1
    12    35    36    1
    13    37    38    1
    14    38    39    1
    15    38    41    1
    16    39    40    1
    17    41    42    1
    18    42    43   ar
    19    42    44   ar
    20     3     6    1
    21     3     4   ar
    22     6     7   ar
    23     6    12   ar
    24     7     8   ar
    25     8     9   ar
    26     9    10    1
    27     9    11   ar
    28    11    12   ar
    29     4    13    1
    30     4     5   ar
    31    13    14   ar
    32    13    18   ar
    33    14    15   ar
    34    15    16   ar
    35    16    17   ar
    36    17    18   ar
    37     5    19    1
    38    19    20    2
    39    19    21   am
    40    21    23    1
    41    21    22    1
    42    23    24   ar
    43    23    28   ar
    44    24    25   ar
    45    25    26   ar
    46    26    27   ar
    47    27    28   ar



#	Name:			CHEMBL399313
#	Creating user name:	trannguyen
#	Creation time:		Fri Mar 18 16:33:25 2022


#	Modifying user name:	trannguyen
#	Modification time:	Fri Mar 18 16:33:25 2022

@<TRIPOS>MOLECULE
CHEMBL399313
 45 48 0 0 0
SMALL
GASTEIGER

@<TRIPOS>ATOM
      1 N           7.8407   32.5204    8.6877 N.ar    1  UNL1       -0.3290
      2 C           7.2397   33.1739    7.6147 C.ar    1  UNL1        0.0371
      3 C           6.0734   32.4107    7.4235 C.ar    1  UNL1        0.0132
      4 C           5.7905   31.7865    8.7476 C.ar    1  UNL1        0.0213
      5 C           6.7850   32.3338    9.6362 C.ar    1  UNL1        0.1136
      6 C           5.3060   32.4550    6.1559 C.ar    1  UNL1        0.0013
      7 C           5.7597   31.8770    4.9732 C.ar    1  UNL1        0.0023
      8 C           4.8639   31.5973    3.9251 C.ar    1  UNL1        0.0296
      9 C           3.5874   32.1402    3.9386 C.ar    1  UNL1        0.1401
     10 F           2.7264   31.8712    2.9496 F       1  UNL1       -0.2042
     11 C           3.1976   32.9476    4.9812 C.ar    1  UNL1        0.0296
     12 C           4.0360   33.0356    6.0923 C.ar    1  UNL1        0.0023
     13 C           4.6276   30.9535    9.2301 C.ar    1  UNL1        0.0016
     14 C           4.8218   29.6609    9.7063 C.ar    1  UNL1        0.0000
     15 C           3.8363   28.9402   10.3949 C.ar    1  UNL1        0.0000
     16 C           2.5402   29.4163   10.4632 C.ar    1  UNL1        0.0000
     17 C           2.2381   30.5748    9.7778 C.ar    1  UNL1        0.0000
     18 C           3.2738   31.3386    9.2058 C.ar    1  UNL1        0.0000
     19 C           6.8745   32.7303   11.0428 C.2     1  UNL1        0.2620
     20 O           7.0188   31.8645   12.0230 O.2     1  UNL1       -0.2686
     21 N           6.7559   34.0032   11.5257 N.am    1  UNL1       -0.2957
     22 H           6.6551   34.0162   12.5236 H       1  UNL1        0.1501
     23 C           6.7460   35.3323   10.8696 C.3     1  UNL1        0.1166
     24 C           8.0385   36.1212   10.7445 C.ar    1  UNL1       -0.0026
     25 C           8.1784   37.2062   11.6358 C.ar    1  UNL1       -0.0026
     26 C           9.4302   37.7506   11.9220 C.ar    1  UNL1       -0.0003
     27 C          10.5706   37.1465   11.4058 C.ar    1  UNL1       -0.0000
     28 C          10.4489   36.0965   10.4944 C.ar    1  UNL1       -0.0003
     29 C           9.1845   35.6412   10.0940 C.ar    1  UNL1       -0.0026
     30 C           9.0888   30.7104    7.4977 C.3     1  UNL1        0.0245
     31 C           9.0313   31.6523    8.6924 C.3     1  UNL1        0.0854
     32 C          10.4118   32.2910    8.8557 C.3     1  UNL1        0.0245
     33 C           7.9923   34.2025    6.8066 C.3     1  UNL1        0.0463
     34 C           9.1664   33.9107    5.8183 C.3     1  UNL1        0.0355
     35 C           9.0986   33.7134    4.2976 C.3     1  UNL1        0.1133
     36 O           9.5474   32.4031    3.9507 O.3     1  UNL1       -0.3844
     37 H           8.8830   31.9760    3.3856 H       1  UNL1        0.2103
     38 C           7.8781   34.2600    3.5113 C.3     1  UNL1        0.0588
     39 C           7.7961   34.0066    2.0229 C.3     1  UNL1        0.1185
     40 O           9.1804   33.9916    1.6735 O.3     1  UNL1       -0.3840
     41 H           9.4743   33.0659    1.8100 H       1  UNL1        0.2104
     42 C           7.0658   32.7861    1.5074 C.3     1  UNL1        0.0710
     43 C           7.8953   31.6890    0.8810 C.2     1  UNL1        0.0528
     44 O           8.8781   31.3154    1.5786 O.co2   1  UNL1       -0.5491
     45 O           7.5346   31.3441   -0.2740 O.co2   1  UNL1       -0.5491
@<TRIPOS>UNITY_ATOM_ATTR
44 1
charge -1
@<TRIPOS>BOND
     1    30    31    1
     2    31    32    1
     3    31     1    1
     4     1     2   ar
     5     1     5   ar
     6     2    33    1
     7     2     3   ar
     8    33    34    1
     9    34    35    1
    10    35    36    1
    11    35    38    1
    12    36    37    1
    13    38    39    1
    14    39    40    1
    15    39    42    1
    16    40    41    1
    17    42    43    1
    18    43    44   ar
    19    43    45   ar
    20     3     6    1
    21     3     4   ar
    22     6     7   ar
    23     6    12   ar
    24     7     8   ar
    25     8     9   ar
    26     9    10    1
    27     9    11   ar
    28    11    12   ar
    29     4    13    1
    30     4     5   ar
    31    13    14   ar
    32    13    18   ar
    33    14    15   ar
    34    15    16   ar
    35    16    17   ar
    36    17    18   ar
    37     5    19    1
    38    19    20    2
    39    19    21   am
    40    21    23    1
    41    21    22    1
    42    23    24    1
    43    24    25   ar
    44    24    29   ar
    45    25    26   ar
    46    26    27   ar
    47    27    28   ar
    48    28    29   ar



#	Name:			CHEMBL399360
#	Creating user name:	trannguyen
#	Creation time:		Fri Mar 18 16:33:25 2022


#	Modifying user name:	trannguyen
#	Modification time:	Fri Mar 18 16:33:25 2022

@<TRIPOS>MOLECULE
CHEMBL399360
 45 48 0 0 0
SMALL
GASTEIGER

@<TRIPOS>ATOM
      1 N           7.5992   32.8152    6.6952 N.ar    1  UNL1       -0.3290
      2 C           6.2165   32.8810    6.9411 C.ar    1  UNL1        0.0371
      3 C           5.6835   32.9875    5.6258 C.ar    1  UNL1        0.0132
      4 C           6.9207   33.1677    4.7517 C.ar    1  UNL1        0.0214
      5 C           7.8513   33.7062    5.6857 C.ar    1  UNL1        0.1139
      6 C           4.2043   32.9464    5.3526 C.ar    1  UNL1        0.0013
      7 C           3.4323   31.8080    5.5263 C.ar    1  UNL1        0.0023
      8 C           2.0504   31.7124    5.3176 C.ar    1  UNL1        0.0296
      9 C           1.3838   32.7839    4.7899 C.ar    1  UNL1        0.1401
     10 F           0.0646   32.7264    4.5873 F       1  UNL1       -0.2042
     11 C           2.0851   33.9323    4.5176 C.ar    1  UNL1        0.0296
     12 C           3.4432   34.0191    4.8722 C.ar    1  UNL1        0.0023
     13 C           7.2828   32.8551    3.3246 C.ar    1  UNL1        0.0017
     14 C           7.4401   33.7973    2.3161 C.ar    1  UNL1        0.0024
     15 C           7.7808   33.5050    0.9891 C.ar    1  UNL1        0.0296
     16 C           7.9550   32.2030    0.6019 C.ar    1  UNL1        0.1401
     17 F           8.3024   31.9247   -0.6586 F       1  UNL1       -0.2042
     18 C           7.7458   31.2008    1.5209 C.ar    1  UNL1        0.0296
     19 C           7.4232   31.5360    2.8534 C.ar    1  UNL1        0.0024
     20 C           9.0113   34.5389    5.7529 C.2     1  UNL1        0.2654
     21 O           9.7745   34.6793    4.6932 O.2     1  UNL1       -0.2682
     22 N           9.4594   35.2258    6.8732 N.am    1  UNL1       -0.2792
     23 H          10.3903   35.6039    6.7442 H       1  UNL1        0.1552
     24 C           8.9694   35.3632    8.2003 C.ar    1  UNL1        0.0506
     25 C           9.4167   34.4437    9.1696 C.ar    1  UNL1        0.0147
     26 C           9.0402   34.5556   10.5187 C.ar    1  UNL1        0.0013
     27 C           8.2117   35.5969   10.9238 C.ar    1  UNL1        0.0001
     28 C           7.7523   36.5111    9.9732 C.ar    1  UNL1        0.0013
     29 C           8.1521   36.4091    8.6213 C.ar    1  UNL1        0.0147
     30 C           9.8851   31.4732    6.9506 C.3     1  UNL1        0.0245
     31 C           8.3969   31.5996    6.6908 C.3     1  UNL1        0.0854
     32 C           7.9242   30.8812    7.8418 C.3     1  UNL1        0.0245
     33 C           5.6283   32.9453    8.3629 C.3     1  UNL1        0.0463
     34 C           4.5856   31.9507    8.9226 C.3     1  UNL1        0.0355
     35 C           3.1368   32.3684    9.3119 C.3     1  UNL1        0.1133
     36 O           2.7996   33.5088    8.5101 O.3     1  UNL1       -0.3844
     37 H           2.0586   33.2640    7.9295 H       1  UNL1        0.2103
     38 C           2.0013   31.3229    9.3393 C.3     1  UNL1        0.0588
     39 C           2.4779   29.8491    9.6261 C.3     1  UNL1        0.1185
     40 O           3.1519   29.7937   10.9325 O.3     1  UNL1       -0.3840
     41 H           3.6919   28.9760   10.9566 H       1  UNL1        0.2104
     42 C           1.6536   28.7264   10.1134 C.3     1  UNL1        0.0710
     43 C           2.2281   27.6367   10.9021 C.2     1  UNL1        0.0528
     44 O           1.8352   27.6344   12.0912 O.co2   1  UNL1       -0.5491
     45 O           3.0809   26.9434   10.2853 O.co2   1  UNL1       -0.5491
@<TRIPOS>UNITY_ATOM_ATTR
44 1
charge -1
@<TRIPOS>BOND
     1    30    31    1
     2    31    32    1
     3    31     1    1
     4     1     2   ar
     5     1     5   ar
     6     2    33    1
     7     2     3   ar
     8    33    34    1
     9    34    35    1
    10    35    36    1
    11    35    38    1
    12    36    37    1
    13    38    39    1
    14    39    40    1
    15    39    42    1
    16    40    41    1
    17    42    43    1
    18    43    44   ar
    19    43    45   ar
    20     3     6    1
    21     3     4   ar
    22     6     7   ar
    23     6    12   ar
    24     7     8   ar
    25     8     9   ar
    26     9    10    1
    27     9    11   ar
    28    11    12   ar
    29     4    13    1
    30     4     5   ar
    31    13    14   ar
    32    13    19   ar
    33    14    15   ar
    34    15    16   ar
    35    16    17    1
    36    16    18   ar
    37    18    19   ar
    38     5    20    1
    39    20    21    2
    40    20    22   am
    41    22    24    1
    42    22    23    1
    43    24    25   ar
    44    24    29   ar
    45    25    26   ar
    46    26    27   ar
    47    27    28   ar
    48    28    29   ar



#	Name:			CHEMBL399771
#	Creating user name:	trannguyen
#	Creation time:		Fri Mar 18 16:33:25 2022


#	Modifying user name:	trannguyen
#	Modification time:	Fri Mar 18 16:33:25 2022

@<TRIPOS>MOLECULE
CHEMBL399771
 39 41 0 0 0
SMALL
GASTEIGER

@<TRIPOS>ATOM
      1 C           8.2412   32.7446    5.6562 C.ar    1  UNL1        0.1136
      2 C           7.0989   32.7841    4.7846 C.ar    1  UNL1        0.0213
      3 C           5.8688   32.6933    5.6478 C.ar    1  UNL1        0.0132
      4 C           6.3561   32.7686    6.9662 C.ar    1  UNL1        0.0371
      5 N           7.7016   32.3352    6.8986 N.ar    1  UNL1       -0.3290
      6 C           4.3881   32.6824    5.3271 C.ar    1  UNL1        0.0013
      7 C           3.6187   31.4918    5.2913 C.ar    1  UNL1        0.0023
      8 C           2.2247   31.4983    5.0426 C.ar    1  UNL1        0.0296
      9 C           1.5962   32.6760    4.6766 C.ar    1  UNL1        0.1401
     10 F           0.2811   32.6876    4.4101 F       1  UNL1       -0.2042
     11 C           2.3230   33.8531    4.6343 C.ar    1  UNL1        0.0296
     12 C           3.6753   33.8619    5.0455 C.ar    1  UNL1        0.0023
     13 C           7.2049   32.8848    3.2811 C.ar    1  UNL1        0.0016
     14 C           6.8612   34.0540    2.5852 C.ar    1  UNL1        0.0000
     15 C           6.9665   34.1488    1.1772 C.ar    1  UNL1        0.0000
     16 C           7.3960   33.0682    0.4131 C.ar    1  UNL1        0.0000
     17 C           7.7248   31.8969    1.0610 C.ar    1  UNL1        0.0000
     18 C           7.6433   31.8302    2.4608 C.ar    1  UNL1        0.0000
     19 C          11.3940   34.9063    5.5560 C.3     1  UNL1        0.1110
     20 N          10.0397   34.4244    5.7553 N.am    1  UNL1       -0.2980
     21 C           9.6640   33.1282    5.4189 C.2     1  UNL1        0.2618
     22 O          10.5004   32.4363    4.9173 O.2     1  UNL1       -0.2686
     23 H           9.5866   34.7864    6.5544 H       1  UNL1        0.1498
     24 C           8.3218   31.5072    7.9661 C.3     1  UNL1        0.0854
     25 C           8.9555   30.1815    7.5096 C.3     1  UNL1        0.0245
     26 C           9.2442   32.1748    8.9995 C.3     1  UNL1        0.0245
     27 C           5.6954   33.0590    8.3255 C.3     1  UNL1        0.0463
     28 C           5.0182   31.8874    9.0766 C.3     1  UNL1        0.0355
     29 C           3.4716   32.0100    9.2096 C.3     1  UNL1        0.1133
     30 O           3.0595   33.1558    8.4488 O.3     1  UNL1       -0.3844
     31 H           2.0932   33.1170    8.3301 H       1  UNL1        0.2103
     32 C           2.6031   30.8023    8.8002 C.3     1  UNL1        0.0588
     33 C           1.6903   30.2286    9.8977 C.3     1  UNL1        0.1185
     34 O           0.3529   30.6554    9.5890 O.3     1  UNL1       -0.3840
     35 H          -0.1791   30.2840   10.3361 H       1  UNL1        0.2104
     36 C           1.6428   28.7126    9.9367 C.3     1  UNL1        0.0710
     37 C           2.4861   28.0491   11.0024 C.2     1  UNL1        0.0528
     38 O           2.1376   26.9052   11.3832 O.co2   1  UNL1       -0.5491
     39 O           3.5572   28.6678   11.3065 O.co2   1  UNL1       -0.5491
@<TRIPOS>UNITY_ATOM_ATTR
38 1
charge -1
@<TRIPOS>BOND
     1    19    20    1
     2    20    21   am
     3    20    23    1
     4    21    22    2
     5    21     1    1
     6     1     2   ar
     7     1     5   ar
     8     2    13    1
     9     2     3   ar
    10    13    14   ar
    11    13    18   ar
    12    14    15   ar
    13    15    16   ar
    14    16    17   ar
    15    17    18   ar
    16     3     6    1
    17     3     4   ar
    18     6     7   ar
    19     6    12   ar
    20     7     8   ar
    21     8     9   ar
    22     9    10    1
    23     9    11   ar
    24    11    12   ar
    25     4    27    1
    26     4     5   ar
    27    27    28    1
    28    28    29    1
    29    29    30    1
    30    29    32    1
    31    30    31    1
    32    32    33    1
    33    33    34    1
    34    33    36    1
    35    34    35    1
    36    36    37    1
    37    37    38   ar
    38    37    39   ar
    39     5    24    1
    40    24    25    1
    41    24    26    1



#	Name:			CHEMBL438662
#	Creating user name:	trannguyen
#	Creation time:		Fri Mar 18 16:33:25 2022


#	Modifying user name:	trannguyen
#	Modification time:	Fri Mar 18 16:33:25 2022

@<TRIPOS>MOLECULE
CHEMBL438662
 43 47 0 0 0
SMALL
GASTEIGER

@<TRIPOS>ATOM
      1 N           4.0169   32.6469    5.7637 N.ar    1  UNL1       -0.3288
      2 C           4.1724   32.5312    7.1484 C.ar    1  UNL1        0.0372
      3 C           5.5351   32.4165    7.4474 C.ar    1  UNL1        0.0133
      4 C           6.2014   32.3637    6.1702 C.ar    1  UNL1        0.0230
      5 C           7.6037   32.2900    5.7796 C.ar    1  UNL1        0.0178
      6 C           8.5741   31.7109    6.6078 C.ar    1  UNL1        0.0015
      7 C           9.9349   31.8940    6.3463 C.ar    1  UNL1        0.0001
      8 C          10.3295   32.6527    5.2502 C.ar    1  UNL1        0.0015
      9 C           9.3653   33.1305    4.3594 C.ar    1  UNL1        0.0176
     10 C           7.9973   32.8601    4.5541 C.ar    1  UNL1        0.0669
     11 N           6.9981   33.1200    3.5440 N.ar    1  UNL1       -0.2734
     12 C           5.6315   32.8417    3.7822 C.ar    1  UNL1        0.2805
     13 O           4.8163   32.7683    2.8508 O.2     1  UNL1       -0.2650
     14 C           5.2713   32.6230    5.1713 C.ar    1  UNL1        0.1169
     15 C           6.0985   32.4556    8.8242 C.ar    1  UNL1        0.0013
     16 C           6.3687   31.2643    9.5211 C.ar    1  UNL1        0.0023
     17 C           6.8523   31.2717   10.8381 C.ar    1  UNL1        0.0296
     18 C           7.1728   32.4746   11.4472 C.ar    1  UNL1        0.1401
     19 F           7.6730   32.4796   12.6888 F       1  UNL1       -0.2042
     20 C           6.9807   33.6656   10.7745 C.ar    1  UNL1        0.0296
     21 C           6.4129   33.6515    9.4931 C.ar    1  UNL1        0.0023
     22 C           7.4247   33.3410    2.1939 C.ar    1  UNL1        0.0669
     23 C           7.4782   34.6386    1.6737 C.ar    1  UNL1        0.0176
     24 C           7.8918   34.8566    0.3559 C.ar    1  UNL1        0.0015
     25 C           8.2459   33.7776   -0.4526 C.ar    1  UNL1        0.0001
     26 C           8.1784   32.4801    0.0463 C.ar    1  UNL1        0.0015
     27 C           7.7555   32.2619    1.3592 C.ar    1  UNL1        0.0176
     28 C           2.5261   34.1826    4.4041 C.3     1  UNL1        0.0245
     29 C           2.7173   32.8262    5.0944 C.3     1  UNL1        0.0854
     30 C           2.3095   31.6394    4.2166 C.3     1  UNL1        0.0245
     31 C           2.9896   32.5904    8.0898 C.3     1  UNL1        0.0463
     32 C           2.2374   31.2476    8.1373 C.3     1  UNL1        0.0355
     33 C           0.9868   31.2938    9.0238 C.3     1  UNL1        0.1133
     34 O           0.0542   32.1947    8.4249 O.3     1  UNL1       -0.3844
     35 H          -0.6085   32.4128    9.1050 H       1  UNL1        0.2103
     36 C           0.3711   29.9043    9.2080 C.3     1  UNL1        0.0588
     37 C           0.8105   29.1681   10.4770 C.3     1  UNL1        0.1185
     38 O          -0.0411   28.0345   10.6742 O.3     1  UNL1       -0.3840
     39 H           0.3239   27.3512   10.0642 H       1  UNL1        0.2104
     40 C           2.2725   28.7429   10.5462 C.3     1  UNL1        0.0710
     41 C           2.5382   27.2470   10.6948 C.2     1  UNL1        0.0528
     42 O           3.1454   26.7254    9.7140 O.co2   1  UNL1       -0.5491
     43 O           2.1347   26.7202   11.7637 O.co2   1  UNL1       -0.5491
@<TRIPOS>UNITY_ATOM_ATTR
42 1
charge -1
@<TRIPOS>BOND
     1    28    29    1
     2    29    30    1
     3    29     1    1
     4     1     2   ar
     5     1    14   ar
     6     2    31    1
     7     2     3   ar
     8    31    32    1
     9    32    33    1
    10    33    34    1
    11    33    36    1
    12    34    35    1
    13    36    37    1
    14    37    38    1
    15    37    40    1
    16    38    39    1
    17    40    41    1
    18    41    42   ar
    19    41    43   ar
    20     3    15    1
    21     3     4   ar
    22    15    16   ar
    23    15    21   ar
    24    16    17   ar
    25    17    18   ar
    26    18    19    1
    27    18    20   ar
    28    20    21   ar
    29     4     5   ar
    30     4    14   ar
    31     5     6   ar
    32     5    10   ar
    33     6     7   ar
    34     7     8   ar
    35     8     9   ar
    36     9    10   ar
    37    10    11   ar
    38    11    22    1
    39    11    12   ar
    40    22    23   ar
    41    22    27   ar
    42    23    24   ar
    43    24    25   ar
    44    25    26   ar
    45    26    27   ar
    46    12    13    2
    47    12    14   ar



#	Name:			CHEMBL487720
#	Creating user name:	trannguyen
#	Creation time:		Fri Mar 18 16:33:25 2022


#	Modifying user name:	trannguyen
#	Modification time:	Fri Mar 18 16:33:25 2022

@<TRIPOS>MOLECULE
CHEMBL487720
 33 34 0 0 0
SMALL
GASTEIGER

@<TRIPOS>ATOM
      1 C           7.4245   31.3827    7.2280 C.3     1  UNL1        0.1730
      2 C           8.8936   30.8919    7.3595 C.3     1  UNL1        0.0483
      3 C           9.5331   30.9552    8.7821 C.3     1  UNL1        0.0253
      4 C          11.0058   31.3570    8.6497 C.3     1  UNL1        0.0048
      5 C           8.8310   31.9169    9.7100 C.2     1  UNL1       -0.0305
      6 C           7.5202   32.1558    9.5572 C.2     1  UNL1       -0.0236
      7 C           6.9086   33.3654   10.0659 C.2     1  UNL1       -0.0091
      8 C           5.7305   33.8039    9.5938 C.2     1  UNL1       -0.0268
      9 C           4.9002   33.0152    8.6105 C.3     1  UNL1        0.0224
     10 C           3.4229   33.3991    8.6608 C.3     1  UNL1        0.0047
     11 C           5.1932   31.5018    8.7109 C.3     1  UNL1        0.0116
     12 C           6.7314   31.2612    8.6209 C.3     1  UNL1        0.0624
     13 O           7.3752   32.7440    6.7139 O.3     1  UNL1       -0.4519
     14 C           7.7497   32.9790    5.4155 C.2     1  UNL1        0.3158
     15 O           8.8670   33.2901    5.0720 O.2     1  UNL1       -0.2501
     16 C           6.5774   32.7767    4.4166 C.3     1  UNL1        0.0896
     17 C           6.5091   31.3235    3.9276 C.3     1  UNL1        0.0111
     18 C           6.8179   33.6943    3.2029 C.3     1  UNL1        0.0111
     19 C           4.1553   32.1084    5.1145 C.3     1  UNL1        0.0006
     20 C           5.2676   33.1538    5.1579 C.3     1  UNL1        0.0106
     21 C           4.5559   30.7660    9.9517 C.3     1  UNL1        0.0033
     22 C           4.7886   29.2461   10.1128 C.3     1  UNL1        0.0293
     23 C           3.5091   28.4020    9.9612 C.3     1  UNL1        0.1130
     24 O           3.7627   27.1638   10.6250 O.3     1  UNL1       -0.3844
     25 H           3.7286   27.3339   11.5800 H       1  UNL1        0.2103
     26 C           2.2855   29.1247   10.5666 C.3     1  UNL1        0.0588
     27 C           0.9078   28.7235    9.9838 C.3     1  UNL1        0.1185
     28 O           0.2787   27.8142   10.8951 O.3     1  UNL1       -0.3840
     29 H          -0.6219   27.6542   10.5624 H       1  UNL1        0.2104
     30 C          -0.0558   29.8662    9.6799 C.3     1  UNL1        0.0710
     31 C           0.5103   30.8007    8.6518 C.2     1  UNL1        0.0528
     32 O           1.3230   30.3857    7.7750 O.co2   1  UNL1       -0.5491
     33 O           0.2606   32.0367    8.7279 O.co2   1  UNL1       -0.5491
@<TRIPOS>UNITY_ATOM_ATTR
32 1
charge -1
@<TRIPOS>BOND
     1    19    20    1
     2    20    16    1
     3    16    17    1
     4    16    18    1
     5    16    14    1
     6    14    15    2
     7    14    13    1
     8     1     2    1
     9     1    12    1
    10     1    13    1
    11     2     3    1
    12     3     4    1
    13     3     5    1
    14     5     6    2
    15     6     7    1
    16     6    12    1
    17     7     8    2
    18     8     9    1
    19     9    10    1
    20     9    11    1
    21    11    21    1
    22    11    12    1
    23    21    22    1
    24    22    23    1
    25    23    24    1
    26    23    26    1
    27    24    25    1
    28    26    27    1
    29    27    28    1
    30    27    30    1
    31    28    29    1
    32    30    31    1
    33    31    32   ar
    34    31    33   ar



#	Name:			CHEMBL489540
#	Creating user name:	trannguyen
#	Creation time:		Fri Mar 18 16:33:25 2022


#	Modifying user name:	trannguyen
#	Modification time:	Fri Mar 18 16:33:25 2022

@<TRIPOS>MOLECULE
CHEMBL489540
 21 20 0 0 0
SMALL
GASTEIGER

@<TRIPOS>ATOM
      1 C           2.3334   31.5076    6.9255 C.1     1  UNL1       -0.0095
      2 C           2.8809   32.1561    6.0878 C.1     1  UNL1       -0.0509
      3 C           1.1196   29.9765    8.8204 C.1     1  UNL1       -0.0779
      4 C           1.6374   30.6551    7.9911 C.1     1  UNL1       -0.0138
      5 C           0.4914   29.1531    9.8267 C.3     1  UNL1        0.0770
      6 C           1.4401   28.9014   11.0001 C.3     1  UNL1        0.0140
      7 C           2.1892   27.5776   10.8425 C.3     1  UNL1        0.0010
      8 C           3.5436   27.7850   10.1625 C.3     1  UNL1        0.0000
      9 C           4.1359   29.1514   10.5098 C.3     1  UNL1        0.0000
     10 C           5.4701   29.3780    9.7973 C.3     1  UNL1        0.0000
     11 C           4.9198   31.7915    9.3229 C.3     1  UNL1        0.0000
     12 C           5.9289   30.8299    9.9295 C.3     1  UNL1        0.0000
     13 C           3.5267   32.9209    5.0806 C.2     1  UNL1        0.0456
     14 C           4.3438   32.3381    4.1895 C.2     1  UNL1       -0.0173
     15 C           5.0561   33.0976    3.1189 C.3     1  UNL1        0.0273
     16 C           6.5579   32.7996    3.1577 C.3     1  UNL1        0.0163
     17 C           7.1673   32.6989    1.7599 C.3     1  UNL1        0.1097
     18 C           7.9733   31.4314    1.5714 C.2     1  UNL1        0.3138
     19 O           9.1747   31.3756    1.3675 O.2     1  UNL1       -0.2503
     20 O           7.2170   30.3170    1.6527 O.3     1  UNL1       -0.4802
     21 H           6.2673   30.4855    1.7917 H       1  UNL1        0.2951
@<TRIPOS>BOND
     1    11    12    1
     2    12    10    1
     3    10     9    1
     4     9     8    1
     5     8     7    1
     6     7     6    1
     7     6     5    1
     8     5     3    1
     9     3     4    3
    10     4     1    1
    11     1     2    3
    12     2    13    1
    13    13    14    2
    14    14    15    1
    15    15    16    1
    16    16    17    1
    17    17    18    1
    18    18    19    2
    19    18    20    1
    20    20    21    1



#	Name:			CHEMBL1161639
#	Creating user name:	trannguyen
#	Creation time:		Fri Mar 18 16:33:25 2022


#	Modifying user name:	trannguyen
#	Modification time:	Fri Mar 18 16:33:25 2022

@<TRIPOS>MOLECULE
CHEMBL1161639
 37 39 0 0 0
SMALL
GASTEIGER

@<TRIPOS>ATOM
      1 N           3.8608   32.4053    6.0233 N.ar    1  UNL1       -0.2859
      2 C           2.5087   32.3031    5.6926 C.ar    1  UNL1        0.2204
      3 N           1.8581   31.5616    6.5663 N.ar    1  UNL1       -0.2230
      4 C           2.7144   31.3213    7.6038 C.ar    1  UNL1        0.0989
      5 C           3.9518   31.9456    7.3870 C.ar    1  UNL1        0.0829
      6 C           2.2172   30.5311    8.7345 C.ar    1  UNL1        0.0193
      7 C           0.8310   30.2790    8.8384 C.ar    1  UNL1        0.0038
      8 C           0.3185   29.4153    9.8135 C.ar    1  UNL1        0.0297
      9 C           1.1921   28.7962   10.6940 C.ar    1  UNL1        0.1401
     10 F           0.7150   27.9447   11.6120 F       1  UNL1       -0.2042
     11 C           2.5596   29.0411   10.6271 C.ar    1  UNL1        0.0297
     12 C           3.0735   29.9024    9.6467 C.ar    1  UNL1        0.0038
     13 C           5.0761   32.2286    8.3452 C.ar    1  UNL1        0.0178
     14 C           5.1428   33.3671    9.1710 C.ar    1  UNL1        0.0038
     15 C           6.1287   33.5229   10.1573 C.ar    1  UNL1        0.0297
     16 C           7.1478   32.5950   10.2569 C.ar    1  UNL1        0.1401
     17 F           8.1233   32.7739   11.1573 F       1  UNL1       -0.2042
     18 C           7.1731   31.4982    9.4107 C.ar    1  UNL1        0.0297
     19 C           6.1316   31.3027    8.4856 C.ar    1  UNL1        0.0038
     20 C           1.8693   33.0079    4.5443 C.3     1  UNL1        0.4509
     21 F           2.1788   34.3324    4.5168 F       1  UNL1       -0.1632
     22 F           2.2129   32.4885    3.3357 F       1  UNL1       -0.1632
     23 F           0.5083   32.9458    4.5891 F       1  UNL1       -0.1632
     24 C           6.0282   32.3747    4.7057 C.2     1  UNL1        0.0216
     25 C           4.9150   32.9153    5.2373 C.2     1  UNL1        0.0792
     26 C           6.8924   33.1145    3.6987 C.3     1  UNL1        0.1364
     27 O           8.2505   32.9443    4.1031 O.3     1  UNL1       -0.3799
     28 H           8.8074   33.0751    3.3062 H       1  UNL1        0.2108
     29 C           6.7069   32.6714    2.2366 C.3     1  UNL1        0.0636
     30 C           7.8475   31.7400    1.7626 C.3     1  UNL1        0.1244
     31 O           7.3102   30.4381    1.5026 O.3     1  UNL1       -0.3838
     32 H           7.9991   29.8954    1.0701 H       1  UNL1        0.2104
     33 C           8.6088   32.2643    0.5502 C.3     1  UNL1        0.1385
     34 O           7.2581   33.5819   -0.9771 O.2     1  UNL1       -0.2502
     35 C           7.6725   32.5218   -0.6185 C.2     1  UNL1        0.3163
     36 O           7.3705   31.3780   -1.2781 O.3     1  UNL1       -0.4801
     37 H           6.8526   31.6904   -2.0474 H       1  UNL1        0.2951
@<TRIPOS>BOND
     1    34    35    2
     2    35    36    1
     3    35    33    1
     4    36    37    1
     5    30    31    1
     6    30    29    1
     7    30    33    1
     8    31    32    1
     9    26    27    1
    10    26    24    1
    11    26    29    1
    12    27    28    1
    13    24    25    2
    14    25     1    1
    15     1     2   ar
    16     1     5   ar
    17     2    20    1
    18     2     3   ar
    19    20    21    1
    20    20    22    1
    21    20    23    1
    22     3     4   ar
    23     4     6    1
    24     4     5   ar
    25     6     7   ar
    26     6    12   ar
    27     7     8   ar
    28     8     9   ar
    29     9    10    1
    30     9    11   ar
    31    11    12   ar
    32     5    13    1
    33    13    14   ar
    34    13    19   ar
    35    14    15   ar
    36    15    16   ar
    37    16    17    1
    38    16    18   ar
    39    18    19   ar



#	Name:			CHEMBL1161640
#	Creating user name:	trannguyen
#	Creation time:		Fri Mar 18 16:33:25 2022


#	Modifying user name:	trannguyen
#	Modification time:	Fri Mar 18 16:33:25 2022

@<TRIPOS>MOLECULE
CHEMBL1161640
 37 39 0 0 0
SMALL
GASTEIGER

@<TRIPOS>ATOM
      1 C           6.6617   32.7437    5.0875 C.ar    1  UNL1        0.0826
      2 C           6.2379   32.8410    3.7254 C.ar    1  UNL1        0.0986
      3 N           4.8478   32.8571    3.6241 N.ar    1  UNL1       -0.2306
      4 C           4.3358   32.8074    4.8255 C.ar    1  UNL1        0.1237
      5 N           5.3698   32.8415    5.7901 N.ar    1  UNL1       -0.2925
      6 C          11.6586   33.8587    5.1606 C.3     1  UNL1        0.0310
      7 C          10.5093   33.1634    5.8240 C.ar    1  UNL1       -0.0221
      8 C          10.8133   32.1283    6.7060 C.ar    1  UNL1       -0.0085
      9 C           9.7732   31.3959    7.1903 C.ar    1  UNL1       -0.0221
     10 C           9.8958   30.3885    8.2957 C.3     1  UNL1        0.0310
     11 C           8.5236   31.5866    6.5747 C.ar    1  UNL1       -0.0028
     12 C           8.0850   32.6337    5.7502 C.ar    1  UNL1        0.0170
     13 C           9.1481   33.5043    5.5204 C.ar    1  UNL1       -0.0028
     14 C           6.9594   32.8668    2.4194 C.ar    1  UNL1        0.0193
     15 C           7.6159   31.7880    1.8319 C.ar    1  UNL1        0.0038
     16 C           8.2922   31.8530    0.6092 C.ar    1  UNL1        0.0297
     17 C           8.2467   33.0159   -0.1227 C.ar    1  UNL1        0.1401
     18 F           8.8283   33.0584   -1.3274 F       1  UNL1       -0.2042
     19 C           7.5850   34.1217    0.3837 C.ar    1  UNL1        0.0297
     20 C           6.9778   34.0566    1.6543 C.ar    1  UNL1        0.0038
     21 C           2.8222   32.6472    5.1241 C.3     1  UNL1        0.0573
     22 C           1.9000   33.6602    4.4174 C.3     1  UNL1        0.0079
     23 C           2.2887   31.2653    4.7122 C.3     1  UNL1        0.0079
     24 C           5.0857   32.9695    7.1699 C.2     1  UNL1        0.0790
     25 C           5.0408   31.9580    8.0309 C.2     1  UNL1        0.0216
     26 C           4.5606   31.7884    9.3910 C.3     1  UNL1        0.1364
     27 O           4.4736   33.0655   10.0530 O.3     1  UNL1       -0.3799
     28 H           5.3000   33.5689    9.9045 H       1  UNL1        0.2108
     29 C           3.2414   31.1076    9.5905 C.3     1  UNL1        0.0636
     30 C           3.3940   29.5933    9.7944 C.3     1  UNL1        0.1244
     31 O           4.3192   29.4104   10.8745 O.3     1  UNL1       -0.3838
     32 H           5.1040   29.9623   10.6997 H       1  UNL1        0.2104
     33 C           2.0939   28.8762   10.1688 C.3     1  UNL1        0.1385
     34 C           2.0948   27.7105   11.1591 C.2     1  UNL1        0.3163
     35 O           2.0312   27.8674   12.3337 O.2     1  UNL1       -0.2502
     36 O           2.1887   26.4614   10.6337 O.3     1  UNL1       -0.4801
     37 H           2.0979   26.3674    9.6613 H       1  UNL1        0.2951
@<TRIPOS>BOND
     1     6     7    1
     2     7     8   ar
     3     7    13   ar
     4     8     9   ar
     5     9    10    1
     6     9    11   ar
     7    11    12   ar
     8    12     1    1
     9    12    13   ar
    10     1     2   ar
    11     1     5   ar
    12     2    14    1
    13     2     3   ar
    14    14    15   ar
    15    14    20   ar
    16    15    16   ar
    17    16    17   ar
    18    17    18    1
    19    17    19   ar
    20    19    20   ar
    21     3     4   ar
    22     4    21    1
    23     4     5   ar
    24    21    22    1
    25    21    23    1
    26     5    24    1
    27    24    25    2
    28    25    26    1
    29    26    27    1
    30    26    29    1
    31    27    28    1
    32    29    30    1
    33    30    31    1
    34    30    33    1
    35    31    32    1
    36    33    34    1
    37    34    35    2
    38    34    36    1
    39    36    37    1



#	Name:			CHEMBL1161641
#	Creating user name:	trannguyen
#	Creation time:		Fri Mar 18 16:33:25 2022


#	Modifying user name:	trannguyen
#	Modification time:	Fri Mar 18 16:33:25 2022

@<TRIPOS>MOLECULE
CHEMBL1161641
 39 41 0 0 0
SMALL
GASTEIGER

@<TRIPOS>ATOM
      1 C           4.4180   32.7760    4.9470 C.ar    1  UNL1        0.1237
      2 N           5.5932   33.2061    4.5478 N.ar    1  UNL1       -0.2306
      3 C           6.4577   33.1638    5.6155 C.ar    1  UNL1        0.0986
      4 C           5.8162   32.7461    6.7938 C.ar    1  UNL1        0.0826
      5 N           4.4598   32.4279    6.3315 N.ar    1  UNL1       -0.2925
      6 C           6.3637   32.6475    8.2211 C.ar    1  UNL1        0.0178
      7 C           6.5711   31.4303    8.8804 C.ar    1  UNL1        0.0038
      8 C           6.7977   31.2680   10.2581 C.ar    1  UNL1        0.0297
      9 C           7.0500   32.3737   11.0092 C.ar    1  UNL1        0.1401
     10 F           7.3414   32.2274   12.3079 F       1  UNL1       -0.2042
     11 C           7.0371   33.6114   10.3882 C.ar    1  UNL1        0.0297
     12 C           6.6611   33.7524    9.0211 C.ar    1  UNL1        0.0038
     13 C           7.8597   33.5356    5.3823 C.ar    1  UNL1        0.0204
     14 C           8.1482   34.7179    4.6646 C.ar    1  UNL1        0.0016
     15 C           9.4629   35.0846    4.3448 C.ar    1  UNL1        0.0014
     16 C          10.5312   34.2867    4.7502 C.ar    1  UNL1        0.0183
     17 C          10.2772   33.1161    5.4398 C.ar    1  UNL1        0.1058
     18 C           8.9343   32.7174    5.7328 C.ar    1  UNL1        0.0199
     19 S          11.6171   32.0624    5.9223 S.O2    1  UNL1        0.0104
     20 C          12.8629   33.1577    6.5501 C.3     1  UNL1        0.1816
     21 O          11.1508   31.2669    7.0831 O.2     1  UNL1       -0.1686
     22 O          12.1004   31.4294    4.7504 O.2     1  UNL1       -0.1686
     23 C           2.6056   31.3009    3.9181 C.3     1  UNL1        0.0079
     24 C           3.2060   32.7034    3.9886 C.3     1  UNL1        0.0573
     25 C           2.0191   33.6112    4.4116 C.3     1  UNL1        0.0079
     26 C           3.3869   31.8026    7.0608 C.2     1  UNL1        0.0790
     27 C           2.5234   32.4532    7.8651 C.2     1  UNL1        0.0216
     28 C           1.5353   32.1406    8.9612 C.3     1  UNL1        0.1364
     29 O           0.3638   31.5533    8.4494 O.3     1  UNL1       -0.3799
     30 H           0.6115   30.9869    7.7066 H       1  UNL1        0.2108
     31 C           2.0372   31.2926   10.1812 C.3     1  UNL1        0.0636
     32 C           2.5638   29.8513    9.9333 C.3     1  UNL1        0.1244
     33 O           3.6851   29.5042   10.7397 O.3     1  UNL1       -0.3838
     34 H           4.4335   30.0696   10.4782 H       1  UNL1        0.2104
     35 C           1.5096   28.7855   10.2564 C.3     1  UNL1        0.1385
     36 C           2.0399   27.7431   11.2195 C.2     1  UNL1        0.3163
     37 O           2.5090   26.6698   10.8606 O.2     1  UNL1       -0.2502
     38 O           1.9073   28.0734   12.5242 O.3     1  UNL1       -0.4801
     39 H           1.6091   29.0066   12.6292 H       1  UNL1        0.2951
@<TRIPOS>BOND
     1    23    24    1
     2    24    25    1
     3    24     1    1
     4     1     2   ar
     5     1     5   ar
     6     2     3   ar
     7     3    13    1
     8     3     4   ar
     9    13    14   ar
    10    13    18   ar
    11    14    15   ar
    12    15    16   ar
    13    16    17   ar
    14    17    19    1
    15    17    18   ar
    16    19    20    1
    17    19    21    2
    18    19    22    2
    19     4     6    1
    20     4     5   ar
    21     6     7   ar
    22     6    12   ar
    23     7     8   ar
    24     8     9   ar
    25     9    10    1
    26     9    11   ar
    27    11    12   ar
    28     5    26    1
    29    26    27    2
    30    27    28    1
    31    28    29    1
    32    28    31    1
    33    29    30    1
    34    31    32    1
    35    32    33    1
    36    32    35    1
    37    33    34    1
    38    35    36    1
    39    36    37    2
    40    36    38    1
    41    38    39    1



#	Name:			CHEMBL1161642
#	Creating user name:	trannguyen
#	Creation time:		Fri Mar 18 16:33:25 2022


#	Modifying user name:	trannguyen
#	Modification time:	Fri Mar 18 16:33:25 2022

@<TRIPOS>MOLECULE
CHEMBL1161642
 37 39 0 0 0
SMALL
GASTEIGER

@<TRIPOS>ATOM
      1 C           4.7361   32.8969    5.0084 C.ar    1  UNL1        0.0472
      2 C           6.0616   32.6480    4.7276 C.ar    1  UNL1        0.0479
      3 BR          6.6358   32.1762    2.9723 Br      1  UNL1       -0.0478
      4 C           6.9300   32.6850    5.9085 C.ar    1  UNL1        0.0234
      5 C           6.0157   32.7579    7.0633 C.ar    1  UNL1        0.0641
      6 N           4.6507   32.8588    6.4228 N.ar    1  UNL1       -0.3083
      7 C           8.4724   32.5159    5.8490 C.ar    1  UNL1        0.0021
      8 C           9.3607   33.1852    4.9949 C.ar    1  UNL1        0.0024
      9 C          10.7658   32.9537    4.9496 C.ar    1  UNL1        0.0296
     10 C          11.3606   32.0379    5.7909 C.ar    1  UNL1        0.1401
     11 F          12.6844   31.8462    5.7976 F       1  UNL1       -0.2042
     12 C          10.5741   31.4246    6.7174 C.ar    1  UNL1        0.0296
     13 C           9.2110   31.7790    6.7555 C.ar    1  UNL1        0.0024
     14 C           6.2714   32.6490    8.6945 C.ar    1  UNL1        0.0163
     15 C           6.4828   33.6713    9.5876 C.ar    1  UNL1        0.0037
     16 C           6.8895   33.5961   10.9605 C.ar    1  UNL1        0.0297
     17 C           7.0389   32.3948   11.5678 C.ar    1  UNL1        0.1401
     18 F           7.5008   32.2731   12.8161 F       1  UNL1       -0.2042
     19 C           6.7153   31.3225   10.8619 C.ar    1  UNL1        0.0297
     20 C           6.3885   31.5172    9.4998 C.ar    1  UNL1        0.0037
     21 C           2.6166   31.6593    3.8763 C.3     1  UNL1        0.0063
     22 C           3.4605   32.9463    4.0356 C.3     1  UNL1        0.0392
     23 C           2.3723   33.9972    4.3458 C.3     1  UNL1        0.0063
     24 C           3.3692   32.9432    7.0569 C.2     1  UNL1        0.0776
     25 C           2.7283   32.0219    7.6475 C.2     1  UNL1        0.0216
     26 C           1.5711   31.6046    8.5448 C.3     1  UNL1        0.1364
     27 O           0.3536   32.1651    8.0738 O.3     1  UNL1       -0.3799
     28 H           0.5137   33.0306    7.6515 H       1  UNL1        0.2108
     29 C           1.4968   30.1239    8.7373 C.3     1  UNL1        0.0636
     30 C           1.6075   29.6956   10.1931 C.3     1  UNL1        0.1244
     31 O           0.4012   29.0113   10.5530 O.3     1  UNL1       -0.3838
     32 H          -0.3420   29.5268   10.1813 H       1  UNL1        0.2104
     33 C           2.8129   28.8083   10.4813 C.3     1  UNL1        0.1385
     34 C           2.4731   27.3629   10.7711 C.2     1  UNL1        0.3163
     35 O           2.1279   26.9730   11.8576 O.2     1  UNL1       -0.2502
     36 O           2.6324   26.5271    9.7171 O.3     1  UNL1       -0.4801
     37 H           2.9753   27.0020    8.9212 H       1  UNL1        0.2951
@<TRIPOS>BOND
     1    21    22    1
     2    22    23    1
     3    22     1    1
     4     1     2   ar
     5     1     6   ar
     6     2     3    1
     7     2     4   ar
     8     4     7    1
     9     4     5   ar
    10     7     8   ar
    11     7    13   ar
    12     8     9   ar
    13     9    10   ar
    14    10    11    1
    15    10    12   ar
    16    12    13   ar
    17     5    14    1
    18     5     6   ar
    19    14    15   ar
    20    14    20   ar
    21    15    16   ar
    22    16    17   ar
    23    17    18    1
    24    17    19   ar
    25    19    20   ar
    26     6    24    1
    27    24    25    2
    28    25    26    1
    29    26    27    1
    30    26    29    1
    31    27    28    1
    32    29    30    1
    33    30    31    1
    34    30    33    1
    35    31    32    1
    36    33    34    1
    37    34    35    2
    38    34    36    1
    39    36    37    1



#	Name:			CHEMBL1161645
#	Creating user name:	trannguyen
#	Creation time:		Fri Mar 18 16:33:25 2022


#	Modifying user name:	trannguyen
#	Modification time:	Fri Mar 18 16:33:25 2022

@<TRIPOS>MOLECULE
CHEMBL1161645
 37 39 0 0 0
SMALL
GASTEIGER

@<TRIPOS>ATOM
      1 C           5.7618   32.6039    6.8433 C.ar    1  UNL1        0.0823
      2 C           5.9627   33.0185    5.5082 C.ar    1  UNL1        0.0986
      3 N           4.8620   32.8263    4.7186 N.ar    1  UNL1       -0.2306
      4 C           3.9287   32.2468    5.4314 C.ar    1  UNL1        0.1237
      5 N           4.3640   32.1040    6.7885 N.ar    1  UNL1       -0.2925
      6 C           8.5232   30.6815    7.5297 C.3     1  UNL1        0.0312
      7 C           7.8572   31.7489    8.3627 C.ar    1  UNL1       -0.0182
      8 C           8.5407   31.8739    9.6178 C.ar    1  UNL1        0.0254
      9 C           8.2769   32.9030   10.4931 C.ar    1  UNL1        0.1398
     10 F           9.0051   33.0562   11.6056 F       1  UNL1       -0.2042
     11 C           7.2308   33.7411   10.2266 C.ar    1  UNL1        0.0297
     12 C           6.3806   33.4446    9.1476 C.ar    1  UNL1        0.0035
     13 C           6.6974   32.5466    8.0929 C.ar    1  UNL1        0.0138
     14 C           7.1477   33.5526    4.8413 C.ar    1  UNL1        0.0193
     15 C           7.4899   33.1437    3.5322 C.ar    1  UNL1        0.0038
     16 C           8.5697   33.7268    2.8547 C.ar    1  UNL1        0.0297
     17 C           9.2927   34.7325    3.4772 C.ar    1  UNL1        0.1401
     18 F          10.2584   35.3765    2.8091 F       1  UNL1       -0.2042
     19 C           9.0384   35.0666    4.7983 C.ar    1  UNL1        0.0297
     20 C           8.0112   34.4237    5.4940 C.ar    1  UNL1        0.0038
     21 C           2.5526   31.9459    4.7763 C.3     1  UNL1        0.0573
     22 C           1.7304   33.2472    4.4873 C.3     1  UNL1        0.0079
     23 C           2.6814   31.2563    3.4221 C.3     1  UNL1        0.0079
     24 C           3.4922   31.6800    7.9101 C.2     1  UNL1        0.0790
     25 C           2.2792   32.1727    8.1469 C.2     1  UNL1        0.0216
     26 C           1.0817   31.8580    9.0406 C.3     1  UNL1        0.1364
     27 O          -0.0715   32.4575    8.4351 O.3     1  UNL1       -0.3799
     28 H           0.1221   33.3896    8.2432 H       1  UNL1        0.2108
     29 C           0.7655   30.3457    9.0056 C.3     1  UNL1        0.0636
     30 C           1.0457   29.4633   10.2342 C.3     1  UNL1        0.1244
     31 O           0.0688   28.4073   10.1918 O.3     1  UNL1       -0.3838
     32 H          -0.2896   28.2873   11.0883 H       1  UNL1        0.2104
     33 C           2.3890   28.7612   10.2699 C.3     1  UNL1        0.1385
     34 C           2.4115   27.3265   10.6789 C.2     1  UNL1        0.3163
     35 O           2.2346   26.9887   11.8356 O.2     1  UNL1       -0.2502
     36 O           2.7071   26.4129    9.7222 O.3     1  UNL1       -0.4801
     37 H           2.6988   26.6956    8.7929 H       1  UNL1        0.2951
@<TRIPOS>BOND
     1     6     7    1
     2     7     8   ar
     3     7    13   ar
     4     8     9   ar
     5     9    10    1
     6     9    11   ar
     7    11    12   ar
     8    12    13   ar
     9    13     1    1
    10     1     2   ar
    11     1     5   ar
    12     2    14    1
    13     2     3   ar
    14    14    15   ar
    15    14    20   ar
    16    15    16   ar
    17    16    17   ar
    18    17    18    1
    19    17    19   ar
    20    19    20   ar
    21     3     4   ar
    22     4    21    1
    23     4     5   ar
    24    21    22    1
    25    21    23    1
    26     5    24    1
    27    24    25    2
    28    25    26    1
    29    26    27    1
    30    26    29    1
    31    27    28    1
    32    29    30    1
    33    30    31    1
    34    30    33    1
    35    31    32    1
    36    33    34    1
    37    34    35    2
    38    34    36    1
    39    36    37    1



#	Name:			CHEMBL1161646
#	Creating user name:	trannguyen
#	Creation time:		Fri Mar 18 16:33:25 2022


#	Modifying user name:	trannguyen
#	Modification time:	Fri Mar 18 16:33:25 2022

@<TRIPOS>MOLECULE
CHEMBL1161646
 35 37 0 0 0
SMALL
GASTEIGER

@<TRIPOS>ATOM
      1 C           7.4350   33.3342    6.5913 C.ar    1  UNL1        0.0410
      2 C           7.9592   33.2529    5.3035 C.ar    1  UNL1        0.0145
      3 C           6.9419   32.9508    4.3450 C.ar    1  UNL1        0.0172
      4 C           5.7258   32.9060    5.0799 C.ar    1  UNL1        0.0637
      5 N           6.0976   32.8544    6.4917 N.ar    1  UNL1       -0.3088
      6 C           7.1660   32.8908    2.8622 C.ar    1  UNL1        0.0016
      7 C           7.7880   31.8134    2.2211 C.ar    1  UNL1        0.0024
      8 C           7.8700   31.6529    0.8330 C.ar    1  UNL1        0.0296
      9 C           7.5397   32.7195    0.0345 C.ar    1  UNL1        0.1401
     10 F           7.7290   32.6371   -1.2888 F       1  UNL1       -0.2042
     11 C           7.1015   33.9007    0.6186 C.ar    1  UNL1        0.0296
     12 C           6.8926   33.9784    2.0167 C.ar    1  UNL1        0.0024
     13 C           4.2763   32.8252    4.6155 C.ar    1  UNL1        0.0161
     14 C           3.4135   33.9343    4.5441 C.ar    1  UNL1        0.0014
     15 C           2.0108   33.7702    4.3985 C.ar    1  UNL1        0.0000
     16 C           1.4426   32.5132    4.2048 C.ar    1  UNL1        0.0000
     17 C           2.2746   31.4233    4.1615 C.ar    1  UNL1        0.0000
     18 C           3.6354   31.6017    4.4067 C.ar    1  UNL1        0.0014
     19 C           8.6911   32.6800    8.7468 C.3     1  UNL1        0.0062
     20 C           8.2623   33.8257    7.8154 C.3     1  UNL1        0.0387
     21 C           9.4772   34.7248    7.6057 C.3     1  UNL1        0.0062
     22 C           5.2800   32.3850    7.5756 C.2     1  UNL1        0.0776
     23 C           4.0306   32.7704    7.9060 C.2     1  UNL1        0.0216
     24 C           3.0988   32.4354    9.0418 C.3     1  UNL1        0.1364
     25 O           2.0496   33.3822    9.1162 O.3     1  UNL1       -0.3799
     26 H           2.4815   34.2573    9.0884 H       1  UNL1        0.2108
     27 C           2.5699   30.9824    8.9982 C.3     1  UNL1        0.0636
     28 C           2.6836   30.1957   10.3280 C.3     1  UNL1        0.1244
     29 O           1.7906   30.7278   11.3122 O.3     1  UNL1       -0.3838
     30 H           2.0538   31.6666   11.4384 H       1  UNL1        0.2104
     31 C           2.3306   28.7206   10.1457 C.3     1  UNL1        0.1385
     32 C           1.4257   28.1679   11.2328 C.2     1  UNL1        0.3163
     33 O           1.8099   27.6583   12.2374 O.2     1  UNL1       -0.2502
     34 O           0.1050   28.2607   10.8914 O.3     1  UNL1       -0.4801
     35 H          -0.0197   28.8052   10.0831 H       1  UNL1        0.2951
@<TRIPOS>BOND
     1    19    20    1
     2    20    21    1
     3    20     1    1
     4     1     2   ar
     5     1     5   ar
     6     2     3   ar
     7     3     6    1
     8     3     4   ar
     9     6     7   ar
    10     6    12   ar
    11     7     8   ar
    12     8     9   ar
    13     9    10    1
    14     9    11   ar
    15    11    12   ar
    16     4    13    1
    17     4     5   ar
    18    13    14   ar
    19    13    18   ar
    20    14    15   ar
    21    15    16   ar
    22    16    17   ar
    23    17    18   ar
    24     5    22    1
    25    22    23    2
    26    23    24    1
    27    24    25    1
    28    24    27    1
    29    25    26    1
    30    27    28    1
    31    28    29    1
    32    28    31    1
    33    29    30    1
    34    31    32    1
    35    32    33    2
    36    32    34    1
    37    34    35    1



#	Name:			CHEMBL1161647
#	Creating user name:	trannguyen
#	Creation time:		Fri Mar 18 16:33:25 2022


#	Modifying user name:	trannguyen
#	Modification time:	Fri Mar 18 16:33:25 2022

@<TRIPOS>MOLECULE
CHEMBL1161647
 38 40 0 0 0
SMALL
GASTEIGER

@<TRIPOS>ATOM
      1 C           6.4184   32.4801    6.0888 C.ar    1  UNL1        0.0986
      2 N           5.6006   32.4542    4.9860 N.ar    1  UNL1       -0.2306
      3 C           4.3807   32.2435    5.4243 C.ar    1  UNL1        0.1237
      4 N           4.3367   32.2137    6.8258 N.ar    1  UNL1       -0.2925
      5 C           5.6763   32.3661    7.2724 C.ar    1  UNL1        0.0826
      6 C           6.1338   32.3096    8.6894 C.ar    1  UNL1        0.0178
      7 C           6.3981   31.0755    9.3111 C.ar    1  UNL1        0.0038
      8 C           6.7439   30.9983   10.6649 C.ar    1  UNL1        0.0297
      9 C           6.9684   32.1638   11.3794 C.ar    1  UNL1        0.1401
     10 F           7.3707   32.0971   12.6543 F       1  UNL1       -0.2042
     11 C           6.7677   33.4000   10.7889 C.ar    1  UNL1        0.0297
     12 C           6.2722   33.4637    9.4821 C.ar    1  UNL1        0.0038
     13 C          10.1215   31.9051    6.6406 C.ar    1  UNL1        0.0447
     14 C          10.6638   32.6911    5.6151 C.ar    1  UNL1        0.0143
     15 C           9.8442   33.4597    4.7956 C.ar    1  UNL1        0.0013
     16 C           8.4652   33.4464    4.9910 C.ar    1  UNL1        0.0016
     17 C           7.8731   32.5682    5.9056 C.ar    1  UNL1        0.0203
     18 C           8.7226   31.7901    6.7142 C.ar    1  UNL1        0.0158
     19 C          10.4178   30.3206    8.4740 C.3     1  UNL1        0.1085
     20 N          11.0069   31.1844    7.4611 N.pl3   1  UNL1       -0.3313
     21 H          11.6924   31.8145    7.8753 H       1  UNL1        0.1469
     22 C           3.1601   32.1423    4.5297 C.3     1  UNL1        0.0573
     23 C           3.0602   33.3549    3.6012 C.3     1  UNL1        0.0079
     24 C           3.1601   30.8530    3.7036 C.3     1  UNL1        0.0079
     25 C           3.1509   32.0288    7.5705 C.2     1  UNL1        0.0790
     26 C           2.6626   32.7886    8.5674 C.2     1  UNL1        0.0216
     27 C           1.4617   32.4691    9.4179 C.3     1  UNL1        0.1364
     28 O           0.4226   31.9299    8.6044 O.3     1  UNL1       -0.3799
     29 H           0.3921   32.4683    7.7922 H       1  UNL1        0.2108
     30 C           1.7944   31.4799   10.5553 C.3     1  UNL1        0.0636
     31 C           2.2525   30.1001   10.0403 C.3     1  UNL1        0.1244
     32 O           3.4679   29.7055   10.6893 O.3     1  UNL1       -0.3838
     33 H           4.0910   30.4671   10.5926 H       1  UNL1        0.2104
     34 C           1.2234   29.0079   10.3352 C.3     1  UNL1        0.1385
     35 C           1.8198   27.9168   11.1540 C.2     1  UNL1        0.3163
     36 O           2.0254   28.0186   12.3729 O.2     1  UNL1       -0.2502
     37 O           2.1978   26.8141   10.4167 O.3     1  UNL1       -0.4801
     38 H           1.7930   26.8749    9.5421 H       1  UNL1        0.2951
@<TRIPOS>BOND
     1    19    20    1
     2    20    13    1
     3    20    21    1
     4    13    14   ar
     5    13    18   ar
     6    14    15   ar
     7    15    16   ar
     8    16    17   ar
     9    17     1    1
    10    17    18   ar
    11     1     2   ar
    12     1     5   ar
    13     2     3   ar
    14     3    22    1
    15     3     4   ar
    16    22    23    1
    17    22    24    1
    18     4    25    1
    19     4     5   ar
    20    25    26    2
    21    26    27    1
    22    27    28    1
    23    27    30    1
    24    28    29    1
    25    30    31    1
    26    31    32    1
    27    31    34    1
    28    32    33    1
    29    34    35    1
    30    35    36    2
    31    35    37    1
    32    37    38    1
    33     5     6    1
    34     6     7   ar
    35     6    12   ar
    36     7     8   ar
    37     8     9   ar
    38     9    10    1
    39     9    11   ar
    40    11    12   ar



#	Name:			CHEMBL1161648
#	Creating user name:	trannguyen
#	Creation time:		Fri Mar 18 16:33:25 2022


#	Modifying user name:	trannguyen
#	Modification time:	Fri Mar 18 16:33:25 2022

@<TRIPOS>MOLECULE
CHEMBL1161648
 37 39 0 0 0
SMALL
GASTEIGER

@<TRIPOS>ATOM
      1 C           2.8466   32.1764    5.9109 C.ar    1  UNL1        0.1233
      2 N           2.2162   31.4184    6.7910 N.ar    1  UNL1       -0.2306
      3 C           3.0592   31.1768    7.8499 C.ar    1  UNL1        0.0986
      4 C           4.2678   31.8620    7.6748 C.ar    1  UNL1        0.0826
      5 N           4.2002   32.2890    6.3073 N.ar    1  UNL1       -0.2925
      6 C           2.5865   30.3048    8.9366 C.ar    1  UNL1        0.0193
      7 C           1.1964   30.1570    9.1435 C.ar    1  UNL1        0.0038
      8 C           0.6897   29.2987   10.1310 C.ar    1  UNL1        0.0297
      9 C           1.5708   28.6061   10.9472 C.ar    1  UNL1        0.1401
     10 F           1.0974   27.7941   11.9022 F       1  UNL1       -0.2042
     11 C           2.9414   28.7642   10.7974 C.ar    1  UNL1        0.0297
     12 C           3.4437   29.6187    9.8052 C.ar    1  UNL1        0.0038
     13 C           5.4508   32.1037    8.5762 C.ar    1  UNL1        0.0178
     14 C           5.5165   33.2307    9.4127 C.ar    1  UNL1        0.0038
     15 C           6.6227   33.4822   10.2414 C.ar    1  UNL1        0.0297
     16 C           7.6669   32.5741   10.2955 C.ar    1  UNL1        0.1401
     17 F           8.7083   32.8024   11.1076 F       1  UNL1       -0.2042
     18 C           7.6293   31.4254    9.5223 C.ar    1  UNL1        0.0297
     19 C           6.5434   31.2058    8.6525 C.ar    1  UNL1        0.0038
     20 C           2.4115   31.7359    3.4581 C.3     1  UNL1        0.0075
     21 C           2.1056   32.7068    4.6456 C.3     1  UNL1        0.0510
     22 C           2.5027   34.1111    4.1536 C.3     1  UNL1        0.0075
     23 C           0.5783   32.7068    4.8392 C.3     1  UNL1        0.0075
     24 C           5.2902   32.6838    5.5058 C.2     1  UNL1        0.0790
     25 C           5.6610   32.1090    4.3408 C.2     1  UNL1        0.0216
     26 C           6.8652   32.4953    3.5294 C.3     1  UNL1        0.1364
     27 O           7.3052   31.3024    2.8934 O.3     1  UNL1       -0.3799
     28 H           7.5891   30.6952    3.5976 H       1  UNL1        0.2108
     29 C           6.5438   33.5504    2.4535 C.3     1  UNL1        0.0636
     30 C           7.7256   33.8545    1.5077 C.3     1  UNL1        0.1244
     31 O           8.9413   33.2020    1.8762 O.3     1  UNL1       -0.3838
     32 H           8.7067   32.3592    2.3160 H       1  UNL1        0.2104
     33 C           7.4607   33.4807    0.0511 C.3     1  UNL1        0.1385
     34 C           8.1460   32.2139   -0.3423 C.2     1  UNL1        0.3163
     35 O           9.2009   32.1901   -1.0097 O.2     1  UNL1       -0.2502
     36 O           7.5273   31.0881    0.0392 O.3     1  UNL1       -0.4801
     37 H           6.6865   31.2588    0.5160 H       1  UNL1        0.2951
@<TRIPOS>BOND
     1    20    21    1
     2    21    22    1
     3    21    23    1
     4    21     1    1
     5     1     2   ar
     6     1     5   ar
     7     2     3   ar
     8     3     6    1
     9     3     4   ar
    10     6     7   ar
    11     6    12   ar
    12     7     8   ar
    13     8     9   ar
    14     9    10    1
    15     9    11   ar
    16    11    12   ar
    17     4    13    1
    18     4     5   ar
    19    13    14   ar
    20    13    19   ar
    21    14    15   ar
    22    15    16   ar
    23    16    17    1
    24    16    18   ar
    25    18    19   ar
    26     5    24    1
    27    24    25    2
    28    25    26    1
    29    26    27    1
    30    26    29    1
    31    27    28    1
    32    29    30    1
    33    30    31    1
    34    30    33    1
    35    31    32    1
    36    33    34    1
    37    34    35    2
    38    34    36    1
    39    36    37    1



#	Name:			CHEMBL1161649
#	Creating user name:	trannguyen
#	Creation time:		Fri Mar 18 16:33:25 2022


#	Modifying user name:	trannguyen
#	Modification time:	Fri Mar 18 16:33:25 2022

@<TRIPOS>MOLECULE
CHEMBL1161649
 35 37 0 0 0
SMALL
GASTEIGER

@<TRIPOS>ATOM
      1 C           3.0642   32.1347    6.0701 C.ar    1  UNL1        0.0410
      2 C           2.3065   31.2759    6.8380 C.ar    1  UNL1        0.0145
      3 C           2.9290   31.0279    8.0928 C.ar    1  UNL1        0.0172
      4 C           4.1361   31.7873    8.0793 C.ar    1  UNL1        0.0637
      5 N           4.2914   32.3275    6.7453 N.ar    1  UNL1       -0.3088
      6 C           5.0995   32.0903    9.2066 C.ar    1  UNL1        0.0163
      7 C           5.0987   33.3455    9.8337 C.ar    1  UNL1        0.0037
      8 C           6.1910   33.7862   10.5980 C.ar    1  UNL1        0.0297
      9 C           7.1666   32.8836   10.9753 C.ar    1  UNL1        0.1401
     10 F           8.1894   33.2891   11.7398 F       1  UNL1       -0.2042
     11 C           7.0782   31.5612   10.5704 C.ar    1  UNL1        0.0297
     12 C           6.0922   31.1835    9.6377 C.ar    1  UNL1        0.0037
     13 C           2.3125   30.1545    9.1513 C.ar    1  UNL1        0.0014
     14 C           3.0431   29.4620   10.1148 C.ar    1  UNL1        0.0000
     15 C           2.5028   28.4938   10.9688 C.ar    1  UNL1        0.0000
     16 C           1.1357   28.3248   11.0271 C.ar    1  UNL1        0.0000
     17 C           0.3371   29.0937   10.1899 C.ar    1  UNL1        0.0000
     18 C           0.9169   29.9659    9.2414 C.ar    1  UNL1        0.0000
     19 C           3.1346   31.8410    3.5433 C.3     1  UNL1        0.0062
     20 C           2.6570   32.7113    4.7090 C.3     1  UNL1        0.0387
     21 C           1.1221   32.8524    4.5638 C.3     1  UNL1        0.0062
     22 C           5.4276   33.0098    6.1919 C.2     1  UNL1        0.0776
     23 C           6.5158   32.4591    5.6111 C.2     1  UNL1        0.0216
     24 C           7.8958   33.0272    5.3167 C.3     1  UNL1        0.1364
     25 O           8.7858   32.7585    6.4002 O.3     1  UNL1       -0.3799
     26 H           8.3582   32.1440    7.0203 H       1  UNL1        0.2108
     27 C           8.6078   32.7349    3.9670 C.3     1  UNL1        0.0636
     28 C           7.9978   33.5530    2.7867 C.3     1  UNL1        0.1244
     29 O           9.0482   34.1563    2.0261 O.3     1  UNL1       -0.3838
     30 H           9.5167   34.7547    2.6511 H       1  UNL1        0.2104
     31 C           7.1717   32.7439    1.7943 C.3     1  UNL1        0.1385
     32 C           7.9601   31.5246    1.3310 C.2     1  UNL1        0.3163
     33 O           9.0347   31.5843    0.7956 O.2     1  UNL1       -0.2502
     34 O           7.3312   30.3431    1.5876 O.3     1  UNL1       -0.4801
     35 H           6.5366   30.4475    2.1429 H       1  UNL1        0.2951
@<TRIPOS>BOND
     1    19    20    1
     2    20    21    1
     3    20     1    1
     4     1     2   ar
     5     1     5   ar
     6     2     3   ar
     7     3    13    1
     8     3     4   ar
     9    13    14   ar
    10    13    18   ar
    11    14    15   ar
    12    15    16   ar
    13    16    17   ar
    14    17    18   ar
    15     4     6    1
    16     4     5   ar
    17     6     7   ar
    18     6    12   ar
    19     7     8   ar
    20     8     9   ar
    21     9    10    1
    22     9    11   ar
    23    11    12   ar
    24     5    22    1
    25    22    23    2
    26    23    24    1
    27    24    25    1
    28    24    27    1
    29    25    26    1
    30    27    28    1
    31    28    29    1
    32    28    31    1
    33    29    30    1
    34    31    32    1
    35    32    33    2
    36    32    34    1
    37    34    35    1



#	Name:			CHEMBL1161650
#	Creating user name:	trannguyen
#	Creation time:		Fri Mar 18 16:33:25 2022


#	Modifying user name:	trannguyen
#	Modification time:	Fri Mar 18 16:33:25 2022

@<TRIPOS>MOLECULE
CHEMBL1161650
 38 40 0 0 0
SMALL
GASTEIGER

@<TRIPOS>ATOM
      1 C           5.7380   32.6944    6.7264 C.ar    1  UNL1        0.0826
      2 C           6.4010   33.0958    5.5579 C.ar    1  UNL1        0.0986
      3 N           5.5580   33.0686    4.4756 N.ar    1  UNL1       -0.2306
      4 C           4.4090   32.5697    4.8785 C.ar    1  UNL1        0.1237
      5 N           4.4332   32.3293    6.2663 N.ar    1  UNL1       -0.2925
      6 C           7.8756   34.6403   10.9012 C.3     1  UNL1        0.0334
      7 C           7.1577   33.5163   10.2171 C.ar    1  UNL1        0.0053
      8 C           6.6594   33.6631    8.9093 C.ar    1  UNL1       -0.0006
      9 C           6.2405   32.5622    8.1398 C.ar    1  UNL1        0.0171
     10 C           6.2455   31.3144    8.7934 C.ar    1  UNL1       -0.0006
     11 C           6.4888   31.1950   10.1744 C.ar    1  UNL1        0.0053
     12 C           6.1654   29.9276   10.9085 C.3     1  UNL1        0.0334
     13 C           7.0197   32.2861   10.8518 C.ar    1  UNL1        0.1321
     14 F           7.3822   32.1588   12.1371 F       1  UNL1       -0.2048
     15 C           7.8042   33.4899    5.3622 C.ar    1  UNL1        0.0193
     16 C           8.8801   32.6528    5.6995 C.ar    1  UNL1        0.0038
     17 C          10.2055   33.0705    5.5441 C.ar    1  UNL1        0.0297
     18 C          10.4698   34.2922    4.9460 C.ar    1  UNL1        0.1401
     19 F          11.7400   34.6681    4.7478 F       1  UNL1       -0.2042
     20 C           9.4314   35.1191    4.5387 C.ar    1  UNL1        0.0297
     21 C           8.1036   34.7288    4.7653 C.ar    1  UNL1        0.0038
     22 C           3.2430   32.3375    3.9262 C.3     1  UNL1        0.0573
     23 C           2.8165   30.8733    3.8114 C.3     1  UNL1        0.0079
     24 C           2.0122   33.1547    4.3312 C.3     1  UNL1        0.0079
     25 C           3.3885   31.8550    7.0846 C.2     1  UNL1        0.0790
     26 C           2.6806   32.5165    8.0136 C.2     1  UNL1        0.0216
     27 C           1.5689   31.9319    8.8203 C.3     1  UNL1        0.1364
     28 O           0.3534   32.3107    8.1734 O.3     1  UNL1       -0.3799
     29 H           0.4458   33.2448    7.9053 H       1  UNL1        0.2108
     30 C           1.6697   30.3995    8.8503 C.3     1  UNL1        0.0636
     31 C           2.1050   29.8762   10.2221 C.3     1  UNL1        0.1244
     32 O           1.8424   30.8531   11.2444 O.3     1  UNL1       -0.3838
     33 H           1.9808   31.7422   10.8369 H       1  UNL1        0.2104
     34 C           1.3354   28.6144   10.5956 C.3     1  UNL1        0.1385
     35 C           2.2483   27.4469   10.9216 C.2     1  UNL1        0.3163
     36 O           2.1331   26.7971   11.9268 O.2     1  UNL1       -0.2502
     37 O           3.2577   27.2457   10.0360 O.3     1  UNL1       -0.4801
     38 H           3.2381   27.9037    9.3149 H       1  UNL1        0.2951
@<TRIPOS>BOND
     1     6     7    1
     2     7     8   ar
     3     7    13   ar
     4     8     9   ar
     5     9     1    1
     6     9    10   ar
     7     1     2   ar
     8     1     5   ar
     9     2    15    1
    10     2     3   ar
    11    15    16   ar
    12    15    21   ar
    13    16    17   ar
    14    17    18   ar
    15    18    19    1
    16    18    20   ar
    17    20    21   ar
    18     3     4   ar
    19     4    22    1
    20     4     5   ar
    21    22    23    1
    22    22    24    1
    23     5    25    1
    24    25    26    2
    25    26    27    1
    26    27    28    1
    27    27    30    1
    28    28    29    1
    29    30    31    1
    30    31    32    1
    31    31    34    1
    32    32    33    1
    33    34    35    1
    34    35    36    2
    35    35    37    1
    36    37    38    1
    37    10    11   ar
    38    11    12    1
    39    11    13   ar
    40    13    14    1



#	Name:			CHEMBL1161651
#	Creating user name:	trannguyen
#	Creation time:		Fri Mar 18 16:33:25 2022


#	Modifying user name:	trannguyen
#	Modification time:	Fri Mar 18 16:33:25 2022

@<TRIPOS>MOLECULE
CHEMBL1161651
 36 38 0 0 0
SMALL
GASTEIGER

@<TRIPOS>ATOM
      1 C           3.8221   32.2307    5.4409 C.ar    1  UNL1        0.0410
      2 C           4.9736   32.6387    4.8118 C.ar    1  UNL1        0.0145
      3 C           6.0443   32.8086    5.7440 C.ar    1  UNL1        0.0172
      4 C           5.5188   32.5007    7.0245 C.ar    1  UNL1        0.0637
      5 N           4.1108   32.2784    6.8292 N.ar    1  UNL1       -0.3088
      6 C           7.4083   33.2339    5.3236 C.ar    1  UNL1        0.0016
      7 C           7.5859   34.4198    4.5797 C.ar    1  UNL1        0.0024
      8 C           8.8601   34.8980    4.2376 C.ar    1  UNL1        0.0296
      9 C           9.9863   34.2380    4.6960 C.ar    1  UNL1        0.1401
     10 F          11.2063   34.6979    4.3947 F       1  UNL1       -0.2042
     11 C           9.8556   33.0644    5.4063 C.ar    1  UNL1        0.0296
     12 C           8.5789   32.5325    5.6128 C.ar    1  UNL1        0.0024
     13 C           6.1628   32.4242    8.4004 C.ar    1  UNL1        0.0170
     14 C           6.3722   31.1965    9.0638 C.ar    1  UNL1        0.0015
     15 C           6.7301   31.1356   10.4244 C.ar    1  UNL1        0.0009
     16 C           7.1790   32.2748   11.0735 C.ar    1  UNL1        0.0114
     17 C           7.1439   33.4775   10.3893 C.ar    1  UNL1        0.0577
     18 CL          7.8759   34.8739   11.0805 Cl      1  UNL1       -0.0822
     19 C           6.5213   33.5636    9.1357 C.ar    1  UNL1        0.0128
     20 C           1.4706   32.8904    4.4488 C.3     1  UNL1        0.0062
     21 C           2.4998   31.7892    4.7377 C.3     1  UNL1        0.0387
     22 C           2.7509   31.1003    3.3745 C.3     1  UNL1        0.0062
     23 C           3.0964   32.1465    7.7909 C.2     1  UNL1        0.0776
     24 C           2.1109   31.2550    7.9744 C.2     1  UNL1        0.0216
     25 C           1.0674   31.1584    9.0485 C.3     1  UNL1        0.1364
     26 O           0.1234   32.1804    8.7362 O.3     1  UNL1       -0.3799
     27 H           0.6191   32.9680    8.4499 H       1  UNL1        0.2108
     28 C           0.3822   29.8080    9.3233 C.3     1  UNL1        0.0636
     29 C           0.8040   29.0874   10.6098 C.3     1  UNL1        0.1244
     30 O          -0.0215   27.9643   10.9122 O.3     1  UNL1       -0.3838
     31 H           0.1710   27.7308   11.8406 H       1  UNL1        0.2104
     32 C           2.2742   28.7060   10.7384 C.3     1  UNL1        0.1385
     33 C           2.4814   27.2540   10.6947 C.2     1  UNL1        0.3163
     34 O           2.9267   26.6653    9.6851 O.2     1  UNL1       -0.2502
     35 O           2.1805   26.5317   11.7492 O.3     1  UNL1       -0.4801
     36 H           2.4169   25.6094   11.5877 H       1  UNL1        0.2951
@<TRIPOS>BOND
     1    20    21    1
     2    21    22    1
     3    21     1    1
     4     1     2   ar
     5     1     5   ar
     6     2     3   ar
     7     3     6    1
     8     3     4   ar
     9     6     7   ar
    10     6    12   ar
    11     7     8   ar
    12     8     9   ar
    13     9    10    1
    14     9    11   ar
    15    11    12   ar
    16     4    13    1
    17     4     5   ar
    18    13    14   ar
    19    13    19   ar
    20    14    15   ar
    21    15    16   ar
    22    16    17   ar
    23    17    18    1
    24    17    19   ar
    25     5    23    1
    26    23    24    2
    27    24    25    1
    28    25    26    1
    29    25    28    1
    30    26    27    1
    31    28    29    1
    32    29    30    1
    33    29    32    1
    34    30    31    1
    35    32    33    1
    36    33    34    2
    37    33    35    1
    38    35    36    1



#	Name:			CHEMBL1161652
#	Creating user name:	trannguyen
#	Creation time:		Fri Mar 18 16:33:25 2022


#	Modifying user name:	trannguyen
#	Modification time:	Fri Mar 18 16:33:25 2022

@<TRIPOS>MOLECULE
CHEMBL1161652
 36 38 0 0 0
SMALL
GASTEIGER

@<TRIPOS>ATOM
      1 C           7.5858   33.4981    7.0517 C.ar    1  UNL1        0.2052
      2 N           8.0821   33.5476    5.8266 N.ar    1  UNL1       -0.2133
      3 C           7.1187   33.0681    4.9503 C.ar    1  UNL1        0.1002
      4 C           5.8990   32.9346    5.6223 C.ar    1  UNL1        0.0841
      5 N           6.2958   32.9210    6.9993 N.ar    1  UNL1       -0.2774
      6 C           7.4250   32.8707    3.5207 C.ar    1  UNL1        0.0193
      7 C           7.7911   33.9387    2.6798 C.ar    1  UNL1        0.0039
      8 C           8.2117   33.7360    1.3585 C.ar    1  UNL1        0.0297
      9 C           8.0512   32.4850    0.7902 C.ar    1  UNL1        0.1401
     10 F           8.3471   32.3061   -0.5042 F       1  UNL1       -0.2042
     11 C           7.5354   31.4355    1.5418 C.ar    1  UNL1        0.0297
     12 C           7.2610   31.6165    2.9116 C.ar    1  UNL1        0.0039
     13 C           4.4590   32.8212    5.2108 C.ar    1  UNL1        0.0178
     14 C           3.7846   33.9629    4.7327 C.ar    1  UNL1        0.0038
     15 C           2.3978   33.9688    4.5119 C.ar    1  UNL1        0.0297
     16 C           1.6646   32.8113    4.7075 C.ar    1  UNL1        0.1401
     17 F           0.3351   32.8202    4.5527 F       1  UNL1       -0.2042
     18 C           2.3089   31.6359    5.0315 C.ar    1  UNL1        0.0297
     19 C           3.6942   31.6465    5.2496 C.ar    1  UNL1        0.0038
     20 C           7.6805   34.8909    9.1827 C.3     1  UNL1        0.1151
     21 N           8.2178   33.9718    8.1792 N.pl3   1  UNL1       -0.2758
     22 C           9.5783   33.5173    8.4268 C.3     1  UNL1        0.1151
     23 C           5.5802   32.2683    8.0329 C.2     1  UNL1        0.0805
     24 C           5.9816   31.2457    8.8130 C.2     1  UNL1        0.0217
     25 C           5.0443   30.2332    9.4516 C.3     1  UNL1        0.1364
     26 O           5.3064   30.1733   10.8633 O.3     1  UNL1       -0.3799
     27 H           6.2520   29.9568   11.0034 H       1  UNL1        0.2108
     28 C           3.5368   30.5963    9.3066 C.3     1  UNL1        0.0636
     29 C           2.6906   30.0136   10.4652 C.3     1  UNL1        0.1244
     30 O           1.8835   30.9942   11.1100 O.3     1  UNL1       -0.3838
     31 H           2.4758   31.7383   11.3725 H       1  UNL1        0.2104
     32 C           1.7728   28.8355   10.0864 C.3     1  UNL1        0.1385
     33 C           1.8704   27.6771   11.0592 C.2     1  UNL1        0.3163
     34 O           1.9251   27.6926   12.2777 O.2     1  UNL1       -0.2502
     35 O           2.2880   26.5756   10.3489 O.3     1  UNL1       -0.4801
     36 H           2.4763   25.9155   11.0788 H       1  UNL1        0.2951
@<TRIPOS>BOND
     1    20    21    1
     2    21    22    1
     3    21     1    1
     4     1     2   ar
     5     1     5   ar
     6     2     3   ar
     7     3     6    1
     8     3     4   ar
     9     6     7   ar
    10     6    12   ar
    11     7     8   ar
    12     8     9   ar
    13     9    10    1
    14     9    11   ar
    15    11    12   ar
    16     4    13    1
    17     4     5   ar
    18    13    14   ar
    19    13    19   ar
    20    14    15   ar
    21    15    16   ar
    22    16    17    1
    23    16    18   ar
    24    18    19   ar
    25     5    23    1
    26    23    24    2
    27    24    25    1
    28    25    26    1
    29    25    28    1
    30    26    27    1
    31    28    29    1
    32    29    30    1
    33    29    32    1
    34    30    31    1
    35    32    33    1
    36    33    34    2
    37    33    35    1
    38    35    36    1



#	Name:			CHEMBL1161653
#	Creating user name:	trannguyen
#	Creation time:		Fri Mar 18 16:33:25 2022


#	Modifying user name:	trannguyen
#	Modification time:	Fri Mar 18 16:33:25 2022

@<TRIPOS>MOLECULE
CHEMBL1161653
 40 42 0 0 0
SMALL
GASTEIGER

@<TRIPOS>ATOM
      1 C           5.6413   32.8395    6.8837 C.ar    1  UNL1        0.0826
      2 C           6.3223   33.0376    5.6848 C.ar    1  UNL1        0.0986
      3 N           5.4692   33.0240    4.6196 N.ar    1  UNL1       -0.2306
      4 C           4.2673   32.7990    5.0966 C.ar    1  UNL1        0.1237
      5 N           4.2899   32.7085    6.4968 N.ar    1  UNL1       -0.2925
      6 C           7.1367   33.7193   10.2718 C.ar    1  UNL1        0.0050
      7 C           6.5993   33.8311    8.9788 C.ar    1  UNL1       -0.0006
      8 C           6.1628   32.7097    8.2602 C.ar    1  UNL1        0.0171
      9 C           6.1611   31.4716    8.9166 C.ar    1  UNL1       -0.0006
     10 C           6.5202   31.3624   10.2686 C.ar    1  UNL1        0.0050
     11 C           7.0442   32.4830   10.9165 C.ar    1  UNL1        0.1321
     12 F           7.4637   32.3681   12.1861 F       1  UNL1       -0.2048
     13 C           8.8024   35.6322   10.1260 C.3     1  UNL1        0.0051
     14 C           7.7700   34.8951   10.9762 C.3     1  UNL1        0.0286
     15 C           6.3214   30.0655   11.0072 C.3     1  UNL1        0.0286
     16 C           5.1928   29.2335   10.4279 C.3     1  UNL1        0.0051
     17 C           7.7452   33.2494    5.4508 C.ar    1  UNL1        0.0193
     18 C           8.1370   34.3945    4.7358 C.ar    1  UNL1        0.0038
     19 C           9.4846   34.6569    4.4891 C.ar    1  UNL1        0.0297
     20 C          10.4467   33.7772    4.9648 C.ar    1  UNL1        0.1401
     21 F          11.7420   34.0308    4.7410 F       1  UNL1       -0.2042
     22 C          10.0853   32.6299    5.6583 C.ar    1  UNL1        0.0297
     23 C           8.7345   32.3534    5.8763 C.ar    1  UNL1        0.0038
     24 C           3.0692   32.7373    4.1660 C.3     1  UNL1        0.0573
     25 C           2.6370   31.2922    3.9204 C.3     1  UNL1        0.0079
     26 C           1.8895   33.6439    4.5124 C.3     1  UNL1        0.0079
     27 C           3.1507   32.5226    7.2864 C.2     1  UNL1        0.0790
     28 C           2.5116   31.4028    7.6619 C.2     1  UNL1        0.0216
     29 C           1.2853   31.3949    8.5398 C.3     1  UNL1        0.1364
     30 O           0.3484   32.3080    7.9876 O.3     1  UNL1       -0.3799
     31 H           0.8091   33.1535    7.8415 H       1  UNL1        0.2108
     32 C           0.6184   30.0185    8.6638 C.3     1  UNL1        0.0636
     33 C           0.7807   29.3379   10.0223 C.3     1  UNL1        0.1244
     34 O          -0.4735   28.6882   10.3152 O.3     1  UNL1       -0.3838
     35 H          -1.1242   29.4037   10.4656 H       1  UNL1        0.2104
     36 C           1.8614   28.2688   10.0276 C.3     1  UNL1        0.1385
     37 C           1.9497   27.5987   11.3789 C.2     1  UNL1        0.3163
     38 O           1.8508   28.1898   12.4320 O.2     1  UNL1       -0.2502
     39 O           2.2065   26.2695   11.3015 O.3     1  UNL1       -0.4801
     40 H           2.1510   25.9512   10.3699 H       1  UNL1        0.2951
@<TRIPOS>BOND
     1    13    14    1
     2    14     6    1
     3     6     7   ar
     4     6    11   ar
     5     7     8   ar
     6     8     1    1
     7     8     9   ar
     8     1     2   ar
     9     1     5   ar
    10     2    17    1
    11     2     3   ar
    12    17    18   ar
    13    17    23   ar
    14    18    19   ar
    15    19    20   ar
    16    20    21    1
    17    20    22   ar
    18    22    23   ar
    19     3     4   ar
    20     4    24    1
    21     4     5   ar
    22    24    25    1
    23    24    26    1
    24     5    27    1
    25    27    28    2
    26    28    29    1
    27    29    30    1
    28    29    32    1
    29    30    31    1
    30    32    33    1
    31    33    34    1
    32    33    36    1
    33    34    35    1
    34    36    37    1
    35    37    38    2
    36    37    39    1
    37    39    40    1
    38     9    10   ar
    39    10    15    1
    40    10    11   ar
    41    15    16    1
    42    11    12    1



#	Name:			CHEMBL1161654
#	Creating user name:	trannguyen
#	Creation time:		Fri Mar 18 16:33:25 2022


#	Modifying user name:	trannguyen
#	Modification time:	Fri Mar 18 16:33:25 2022

@<TRIPOS>MOLECULE
CHEMBL1161654
 36 38 0 0 0
SMALL
GASTEIGER

@<TRIPOS>ATOM
      1 C           3.6808   32.2480    5.5046 C.ar    1  UNL1        0.0410
      2 C           4.9110   32.4754    4.9341 C.ar    1  UNL1        0.0145
      3 C           5.9455   32.5733    5.9155 C.ar    1  UNL1        0.0173
      4 C           5.3382   32.3230    7.1881 C.ar    1  UNL1        0.0637
      5 N           3.9114   32.0628    6.8857 N.ar    1  UNL1       -0.3088
      6 C           7.3515   32.8943    5.4927 C.ar    1  UNL1        0.0023
      7 C           7.6921   33.9509    4.6393 C.ar    1  UNL1        0.0001
      8 C           9.0183   34.2427    4.2751 C.ar    1  UNL1        0.0009
      9 C          10.0709   33.5825    4.8890 C.ar    1  UNL1        0.0114
     10 C           9.7799   32.5705    5.7949 C.ar    1  UNL1        0.0577
     11 CL         11.0841   31.7549    6.5739 Cl      1  UNL1       -0.0822
     12 C           8.4468   32.2099    6.0749 C.ar    1  UNL1        0.0114
     13 C           5.9277   32.4148    8.6413 C.ar    1  UNL1        0.0163
     14 C           6.3582   31.2804    9.3598 C.ar    1  UNL1        0.0037
     15 C           6.9850   31.3001   10.6235 C.ar    1  UNL1        0.0297
     16 C           7.1930   32.4966   11.2585 C.ar    1  UNL1        0.1401
     17 F           7.8314   32.5390   12.4338 F       1  UNL1       -0.2042
     18 C           6.7581   33.6517   10.6503 C.ar    1  UNL1        0.0297
     19 C           6.1738   33.6051    9.3603 C.ar    1  UNL1        0.0037
     20 C           1.6289   33.4153    4.4786 C.3     1  UNL1        0.0062
     21 C           2.3449   32.0790    4.7399 C.3     1  UNL1        0.0387
     22 C           2.5142   31.3910    3.3684 C.3     1  UNL1        0.0062
     23 C           2.9270   31.6402    7.8117 C.2     1  UNL1        0.0776
     24 C           2.0977   32.3566    8.5944 C.2     1  UNL1        0.0216
     25 C           1.2022   31.7441    9.6434 C.3     1  UNL1        0.1364
     26 O           0.1464   32.6421    9.9667 O.3     1  UNL1       -0.3799
     27 H           0.0038   33.2634    9.2322 H       1  UNL1        0.2108
     28 C           0.6298   30.3709    9.2651 C.3     1  UNL1        0.0636
     29 C           0.9747   29.2014   10.2089 C.3     1  UNL1        0.1244
     30 O          -0.2471   28.5180   10.5489 O.3     1  UNL1       -0.3838
     31 H          -0.7993   29.1495   11.0506 H       1  UNL1        0.2104
     32 C           1.9039   28.1629    9.5923 C.3     1  UNL1        0.1385
     33 C           2.7726   27.4457   10.6127 C.2     1  UNL1        0.3163
     34 O           3.9451   27.2714   10.4749 O.2     1  UNL1       -0.2502
     35 O           2.0676   26.9897   11.6748 O.3     1  UNL1       -0.4801
     36 H           1.1379   27.2998   11.6596 H       1  UNL1        0.2951
@<TRIPOS>BOND
     1    20    21    1
     2    21    22    1
     3    21     1    1
     4     1     2   ar
     5     1     5   ar
     6     2     3   ar
     7     3     6    1
     8     3     4   ar
     9     6     7   ar
    10     6    12   ar
    11     7     8   ar
    12     8     9   ar
    13     9    10   ar
    14    10    11    1
    15    10    12   ar
    16     4    13    1
    17     4     5   ar
    18    13    14   ar
    19    13    19   ar
    20    14    15   ar
    21    15    16   ar
    22    16    17    1
    23    16    18   ar
    24    18    19   ar
    25     5    23    1
    26    23    24    2
    27    24    25    1
    28    25    26    1
    29    25    28    1
    30    26    27    1
    31    28    29    1
    32    29    30    1
    33    29    32    1
    34    30    31    1
    35    32    33    1
    36    33    34    2
    37    33    35    1
    38    35    36    1



#	Name:			CHEMBL1161655
#	Creating user name:	trannguyen
#	Creation time:		Fri Mar 18 16:33:25 2022


#	Modifying user name:	trannguyen
#	Modification time:	Fri Mar 18 16:33:25 2022

@<TRIPOS>MOLECULE
CHEMBL1161655
 36 38 0 0 0
SMALL
GASTEIGER

@<TRIPOS>ATOM
      1 C           4.3740   33.0106    4.4603 C.ar    1  UNL1        0.0410
      2 C           5.2654   33.8710    3.8479 C.ar    1  UNL1        0.0145
      3 C           6.4944   33.9094    4.5795 C.ar    1  UNL1        0.0172
      4 C           6.3465   32.9948    5.6592 C.ar    1  UNL1        0.0637
      5 N           4.9131   32.7577    5.7356 N.ar    1  UNL1       -0.3088
      6 C           7.6660   34.7121    4.1376 C.ar    1  UNL1        0.0016
      7 C           8.1911   34.6536    2.8445 C.ar    1  UNL1        0.0024
      8 C           9.3868   35.3019    2.5003 C.ar    1  UNL1        0.0296
      9 C          10.0177   36.1218    3.4212 C.ar    1  UNL1        0.1401
     10 F          11.1443   36.7623    3.0811 F       1  UNL1       -0.2042
     11 C           9.4641   36.3124    4.6760 C.ar    1  UNL1        0.0296
     12 C           8.2976   35.6123    5.0305 C.ar    1  UNL1        0.0024
     13 C           7.3261   32.4445    6.6980 C.ar    1  UNL1        0.0166
     14 C           7.9287   31.1745    6.6125 C.ar    1  UNL1        0.0015
     15 C           8.7589   30.6482    7.6270 C.ar    1  UNL1        0.0006
     16 C           9.1087   31.4248    8.7222 C.ar    1  UNL1        0.0067
     17 C           8.5927   32.7091    8.8039 C.ar    1  UNL1        0.0346
     18 BR          9.1765   33.8535   10.1958 Br      1  UNL1       -0.0490
     19 C           7.6786   33.1879    7.8451 C.ar    1  UNL1        0.0081
     20 C           3.0829   30.8256    3.8331 C.3     1  UNL1        0.0062
     21 C           3.1606   32.3401    3.7898 C.3     1  UNL1        0.0387
     22 C           1.8049   32.8780    4.2895 C.3     1  UNL1        0.0062
     23 C           4.2291   32.3780    6.9190 C.2     1  UNL1        0.0776
     24 C           3.3559   33.0608    7.6929 C.2     1  UNL1        0.0216
     25 C           2.7600   32.5357    8.9945 C.3     1  UNL1        0.1364
     26 O           1.6467   33.3568    9.3117 O.3     1  UNL1       -0.3799
     27 H           1.9878   34.2409    9.5209 H       1  UNL1        0.2108
     28 C           2.2627   31.0780    8.9140 C.3     1  UNL1        0.0636
     29 C           2.5319   30.1853   10.1513 C.3     1  UNL1        0.1244
     30 O           1.8311   30.7275   11.2773 O.3     1  UNL1       -0.3838
     31 H           2.3204   31.5189   11.5625 H       1  UNL1        0.2104
     32 C           2.2023   28.6932   10.0825 C.3     1  UNL1        0.1385
     33 C           1.3602   28.1928   11.2312 C.2     1  UNL1        0.3163
     34 O           1.7600   27.6936   12.2456 O.2     1  UNL1       -0.2502
     35 O           0.0323   28.2261   10.9609 O.3     1  UNL1       -0.4801
     36 H          -0.3683   27.8380   11.7662 H       1  UNL1        0.2951
@<TRIPOS>BOND
     1    20    21    1
     2    21    22    1
     3    21     1    1
     4     1     2   ar
     5     1     5   ar
     6     2     3   ar
     7     3     6    1
     8     3     4   ar
     9     6     7   ar
    10     6    12   ar
    11     7     8   ar
    12     8     9   ar
    13     9    10    1
    14     9    11   ar
    15    11    12   ar
    16     4    13    1
    17     4     5   ar
    18    13    14   ar
    19    13    19   ar
    20    14    15   ar
    21    15    16   ar
    22    16    17   ar
    23    17    18    1
    24    17    19   ar
    25     5    23    1
    26    23    24    2
    27    24    25    1
    28    25    26    1
    29    25    28    1
    30    26    27    1
    31    28    29    1
    32    29    30    1
    33    29    32    1
    34    30    31    1
    35    32    33    1
    36    33    34    2
    37    33    35    1
    38    35    36    1



#	Name:			CHEMBL1161656
#	Creating user name:	trannguyen
#	Creation time:		Fri Mar 18 16:33:25 2022


#	Modifying user name:	trannguyen
#	Modification time:	Fri Mar 18 16:33:25 2022

@<TRIPOS>MOLECULE
CHEMBL1161656
 36 38 0 0 0
SMALL
GASTEIGER

@<TRIPOS>ATOM
      1 C           4.2926   32.4975    5.3897 C.ar    1  UNL1        0.0599
      2 C           5.6295   32.3294    5.0248 C.ar    1  UNL1        0.0948
      3 N           6.4084   32.1553    6.1503 N.ar    1  UNL1       -0.2268
      4 C           5.6300   32.2636    7.2184 C.ar    1  UNL1        0.1474
      5 N           4.2759   32.3243    6.8078 N.ar    1  UNL1       -0.2928
      6 C           6.2336   32.2837    3.6790 C.ar    1  UNL1        0.0190
      7 C           6.2860   33.4421    2.8811 C.ar    1  UNL1        0.0038
      8 C           6.9296   33.4371    1.6288 C.ar    1  UNL1        0.0297
      9 C           7.5073   32.2681    1.1519 C.ar    1  UNL1        0.1401
     10 F           8.1329   32.2594   -0.0327 F       1  UNL1       -0.2042
     11 C           7.4211   31.0995    1.8857 C.ar    1  UNL1        0.0297
     12 C           6.7642   31.1115    3.1231 C.ar    1  UNL1        0.0038
     13 C           6.1866   32.3881    8.6105 C.ar    1  UNL1        0.0346
     14 C           6.4291   31.2275    9.3765 C.ar    1  UNL1        0.0053
     15 C           6.9669   31.2909   10.6762 C.ar    1  UNL1        0.0297
     16 C           7.2790   32.5211   11.2327 C.ar    1  UNL1        0.1401
     17 F           7.7774   32.5901   12.4750 F       1  UNL1       -0.2042
     18 C           7.0887   33.6823   10.5030 C.ar    1  UNL1        0.0297
     19 C           6.5747   33.6084    9.1961 C.ar    1  UNL1        0.0053
     20 C           2.8978   34.1380    4.0422 C.3     1  UNL1        0.0063
     21 C           2.9976   32.7117    4.5987 C.3     1  UNL1        0.0402
     22 C           2.6694   31.6629    3.5292 C.3     1  UNL1        0.0063
     23 C           3.0996   32.2896    7.6060 C.2     1  UNL1        0.0789
     24 C           2.2919   31.2407    7.8701 C.2     1  UNL1        0.0216
     25 C           1.1769   31.2559    8.8976 C.3     1  UNL1        0.1364
     26 O           0.1291   32.1103    8.4425 O.3     1  UNL1       -0.3799
     27 H           0.5398   32.9106    8.0658 H       1  UNL1        0.2108
     28 C           0.5838   29.8467    9.1411 C.3     1  UNL1        0.0636
     29 C           0.9144   29.2650   10.5324 C.3     1  UNL1        0.1244
     30 O           0.0356   28.2005   10.9060 O.3     1  UNL1       -0.3838
     31 H          -0.8552   28.4047   10.5298 H       1  UNL1        0.2104
     32 C           2.3359   28.7325   10.6221 C.3     1  UNL1        0.1385
     33 C           2.5154   27.2130   10.5952 C.2     1  UNL1        0.3163
     34 O           2.9602   26.6223    9.6511 O.2     1  UNL1       -0.2502
     35 O           2.1465   26.5814   11.7491 O.3     1  UNL1       -0.4801
     36 H           1.5950   27.1333   12.3301 H       1  UNL1        0.2951
@<TRIPOS>BOND
     1    20    21    1
     2    21    22    1
     3    21     1    1
     4     1     2   ar
     5     1     5   ar
     6     2     6    1
     7     2     3   ar
     8     6     7   ar
     9     6    12   ar
    10     7     8   ar
    11     8     9   ar
    12     9    10    1
    13     9    11   ar
    14    11    12   ar
    15     3     4   ar
    16     4    13    1
    17     4     5   ar
    18    13    14   ar
    19    13    19   ar
    20    14    15   ar
    21    15    16   ar
    22    16    17    1
    23    16    18   ar
    24    18    19   ar
    25     5    23    1
    26    23    24    2
    27    24    25    1
    28    25    26    1
    29    25    28    1
    30    26    27    1
    31    28    29    1
    32    29    30    1
    33    29    32    1
    34    30    31    1
    35    32    33    1
    36    33    34    2
    37    33    35    1
    38    35    36    1



#	Name:			CHEMBL1161657
#	Creating user name:	trannguyen
#	Creation time:		Fri Mar 18 16:33:25 2022


#	Modifying user name:	trannguyen
#	Modification time:	Fri Mar 18 16:33:25 2022

@<TRIPOS>MOLECULE
CHEMBL1161657
 38 40 0 0 0
SMALL
GASTEIGER

@<TRIPOS>ATOM
      1 C           5.6645   32.7157    5.9375 C.ar    1  UNL1        0.0986
      2 N           4.7816   32.3737    4.9484 N.ar    1  UNL1       -0.2306
      3 C           3.7371   31.8316    5.5372 C.ar    1  UNL1        0.1237
      4 N           3.8381   31.9359    6.9274 N.ar    1  UNL1       -0.2925
      5 C           5.1495   32.3855    7.1871 C.ar    1  UNL1        0.0826
      6 C           8.4105   36.0297    3.3445 C.3     1  UNL1        0.0319
      7 C           8.3386   34.9155    4.3534 C.ar    1  UNL1       -0.0115
      8 C           7.0758   34.4105    4.7166 C.ar    1  UNL1       -0.0019
      9 C           6.9461   33.3234    5.5855 C.ar    1  UNL1        0.0186
     10 C           8.1126   32.7946    6.1599 C.ar    1  UNL1       -0.0019
     11 C           9.3871   33.3017    5.8542 C.ar    1  UNL1       -0.0115
     12 C          10.5901   32.6870    6.5148 C.3     1  UNL1        0.0319
     13 C           9.4931   34.3489    4.9237 C.ar    1  UNL1        0.0497
     14 CL         11.0586   34.9471    4.4743 Cl      1  UNL1       -0.0829
     15 C           5.7779   32.3780    8.5173 C.ar    1  UNL1        0.0178
     16 C           5.9126   33.5567    9.2662 C.ar    1  UNL1        0.0038
     17 C           6.5870   33.5448   10.4909 C.ar    1  UNL1        0.0297
     18 C           7.1004   32.3507   10.9827 C.ar    1  UNL1        0.1401
     19 F           7.7447   32.3410   12.1566 F       1  UNL1       -0.2042
     20 C           6.9638   31.1678   10.2686 C.ar    1  UNL1        0.0297
     21 C           6.3154   31.1837    9.0318 C.ar    1  UNL1        0.0038
     22 C           2.5774   31.2765    4.7440 C.3     1  UNL1        0.0573
     23 C           1.4455   32.2871    4.5698 C.3     1  UNL1        0.0079
     24 C           2.9840   30.6154    3.4284 C.3     1  UNL1        0.0079
     25 C           2.8122   31.6601    7.8447 C.2     1  UNL1        0.0790
     26 C           2.2642   32.4997    8.7392 C.2     1  UNL1        0.0216
     27 C           1.1241   32.0954    9.6255 C.3     1  UNL1        0.1364
     28 O           0.1131   33.0903    9.5240 O.3     1  UNL1       -0.3799
     29 H           0.5535   33.9579    9.5747 H       1  UNL1        0.2108
     30 C           0.5466   30.7401    9.2032 C.3     1  UNL1        0.0636
     31 C           0.7751   29.6309   10.2425 C.3     1  UNL1        0.1244
     32 O          -0.3840   28.7922   10.3388 O.3     1  UNL1       -0.3838
     33 H          -1.1421   29.3726   10.5433 H       1  UNL1        0.2104
     34 C           1.9793   28.7239    9.9776 C.3     1  UNL1        0.1385
     35 C           2.1074   27.6441   11.0065 C.2     1  UNL1        0.3163
     36 O           2.0673   27.8503   12.2032 O.2     1  UNL1       -0.2502
     37 O           2.3088   26.4022   10.4737 O.3     1  UNL1       -0.4801
     38 H           2.4735   26.4450    9.5218 H       1  UNL1        0.2951
@<TRIPOS>BOND
     1     6     7    1
     2     7     8   ar
     3     7    13   ar
     4     8     9   ar
     5     9     1    1
     6     9    10   ar
     7     1     2   ar
     8     1     5   ar
     9     2     3   ar
    10     3    22    1
    11     3     4   ar
    12    22    23    1
    13    22    24    1
    14     4    25    1
    15     4     5   ar
    16    25    26    2
    17    26    27    1
    18    27    28    1
    19    27    30    1
    20    28    29    1
    21    30    31    1
    22    31    32    1
    23    31    34    1
    24    32    33    1
    25    34    35    1
    26    35    36    2
    27    35    37    1
    28    37    38    1
    29     5    15    1
    30    15    16   ar
    31    15    21   ar
    32    16    17   ar
    33    17    18   ar
    34    18    19    1
    35    18    20   ar
    36    20    21   ar
    37    10    11   ar
    38    11    12    1
    39    11    13   ar
    40    13    14    1



#	Name:			CHEMBL1161658
#	Creating user name:	trannguyen
#	Creation time:		Fri Mar 18 16:33:25 2022


#	Modifying user name:	trannguyen
#	Modification time:	Fri Mar 18 16:33:25 2022

@<TRIPOS>MOLECULE
CHEMBL1161658
 36 38 0 0 0
SMALL
GASTEIGER

@<TRIPOS>ATOM
      1 C           4.0135   32.5375    5.3596 C.ar    1  UNL1        0.0410
      2 C           5.2682   32.7433    4.8254 C.ar    1  UNL1        0.0145
      3 C           6.2311   32.7244    5.8626 C.ar    1  UNL1        0.0172
      4 C           5.5362   32.5056    7.0548 C.ar    1  UNL1        0.0637
      5 N           4.1922   32.2198    6.7152 N.ar    1  UNL1       -0.3088
      6 C           7.6721   32.9413    5.6940 C.ar    1  UNL1        0.0019
      7 C           8.6348   32.1276    6.3063 C.ar    1  UNL1        0.0001
      8 C          10.0004   32.3576    6.1130 C.ar    1  UNL1        0.0005
      9 C          10.4242   33.3781    5.2660 C.ar    1  UNL1        0.0067
     10 C           9.4786   34.1712    4.6252 C.ar    1  UNL1        0.0346
     11 BR         10.0405   35.5295    3.4358 Br      1  UNL1       -0.0490
     12 C           8.1160   33.9665    4.8425 C.ar    1  UNL1        0.0067
     13 C           6.0584   32.4609    8.4400 C.ar    1  UNL1        0.0163
     14 C           6.2063   33.6270    9.2121 C.ar    1  UNL1        0.0037
     15 C           6.6859   33.5595   10.5230 C.ar    1  UNL1        0.0297
     16 C           6.9726   32.3219   11.0835 C.ar    1  UNL1        0.1401
     17 F           7.4096   32.2560   12.3476 F       1  UNL1       -0.2042
     18 C           6.8006   31.1523   10.3549 C.ar    1  UNL1        0.0297
     19 C           6.3583   31.2228    9.0313 C.ar    1  UNL1        0.0037
     20 C           2.4097   34.1027    4.1902 C.3     1  UNL1        0.0062
     21 C           2.6728   32.6633    4.6496 C.3     1  UNL1        0.0387
     22 C           2.5444   31.7196    3.4416 C.3     1  UNL1        0.0062
     23 C           3.2437   31.6904    7.6134 C.2     1  UNL1        0.0776
     24 C           2.3156   32.3819    8.2945 C.2     1  UNL1        0.0216
     25 C           1.2589   31.7825    9.1713 C.3     1  UNL1        0.1364
     26 O           0.0451   32.4156    8.7956 O.3     1  UNL1       -0.3799
     27 H           0.2050   33.3748    8.7795 H       1  UNL1        0.2108
     28 C           1.1321   30.2636    8.9455 C.3     1  UNL1        0.0636
     29 C           1.1887   29.4169   10.2344 C.3     1  UNL1        0.1244
     30 O           0.1833   28.3948   10.1651 O.3     1  UNL1       -0.3838
     31 H          -0.6793   28.8522   10.1185 H       1  UNL1        0.2104
     32 C           2.5454   28.7584   10.4843 C.3     1  UNL1        0.1385
     33 C           2.4302   27.2901   10.7675 C.2     1  UNL1        0.3163
     34 O           2.2068   26.8253   11.8872 O.2     1  UNL1       -0.2502
     35 O           2.6734   26.5048    9.7018 O.3     1  UNL1       -0.4801
     36 H           2.7678   27.0497    8.8837 H       1  UNL1        0.2951
@<TRIPOS>BOND
     1    20    21    1
     2    21    22    1
     3    21     1    1
     4     1     2   ar
     5     1     5   ar
     6     2     3   ar
     7     3     6    1
     8     3     4   ar
     9     6     7   ar
    10     6    12   ar
    11     7     8   ar
    12     8     9   ar
    13     9    10   ar
    14    10    11    1
    15    10    12   ar
    16     4    13    1
    17     4     5   ar
    18    13    14   ar
    19    13    19   ar
    20    14    15   ar
    21    15    16   ar
    22    16    17    1
    23    16    18   ar
    24    18    19   ar
    25     5    23    1
    26    23    24    2
    27    24    25    1
    28    25    26    1
    29    25    28    1
    30    26    27    1
    31    28    29    1
    32    29    30    1
    33    29    32    1
    34    30    31    1
    35    32    33    1
    36    33    34    2
    37    33    35    1
    38    35    36    1



#	Name:			CHEMBL1161659
#	Creating user name:	trannguyen
#	Creation time:		Fri Mar 18 16:33:25 2022


#	Modifying user name:	trannguyen
#	Modification time:	Fri Mar 18 16:33:25 2022

@<TRIPOS>MOLECULE
CHEMBL1161659
 36 38 0 0 0
SMALL
GASTEIGER

@<TRIPOS>ATOM
      1 C           5.5764   32.7779    9.2322 C.ar    1  UNL1        0.1237
      2 N           4.6095   32.0874    9.7970 N.ar    1  UNL1       -0.2306
      3 C           3.7716   31.6106    8.8025 C.ar    1  UNL1        0.0986
      4 C           4.1682   32.0511    7.5249 C.ar    1  UNL1        0.0826
      5 N           5.4247   32.7195    7.8361 N.ar    1  UNL1       -0.2925
      6 C           2.6107   30.8105    9.2113 C.ar    1  UNL1        0.0193
      7 C           1.3130   31.2668    8.9246 C.ar    1  UNL1        0.0038
      8 C           0.1914   30.4719    9.2018 C.ar    1  UNL1        0.0297
      9 C           0.3548   29.2398    9.8201 C.ar    1  UNL1        0.1401
     10 F          -0.7086   28.4618   10.0596 F       1  UNL1       -0.2042
     11 C           1.6117   28.8150   10.2113 C.ar    1  UNL1        0.0297
     12 C           2.7218   29.6206    9.9392 C.ar    1  UNL1        0.0038
     13 C           3.4936   31.9624    6.1219 C.ar    1  UNL1        0.0178
     14 C           4.0277   31.2553    5.0488 C.ar    1  UNL1        0.0038
     15 C           3.3825   31.0988    3.7941 C.ar    1  UNL1        0.0297
     16 C           2.2881   31.8364    3.4581 C.ar    1  UNL1        0.1401
     17 F           1.8100   31.8057    2.2083 F       1  UNL1       -0.2042
     18 C           1.7554   32.6329    4.4237 C.ar    1  UNL1        0.0297
     19 C           2.3349   32.6561    5.7194 C.ar    1  UNL1        0.0038
     20 C           6.1476   34.7444   10.7283 C.3     1  UNL1        0.0079
     21 C           6.6965   33.4912   10.0246 C.3     1  UNL1        0.0573
     22 C           7.4106   32.6823   11.1222 C.3     1  UNL1        0.0079
     23 C           6.4120   33.0388    6.9089 C.2     1  UNL1        0.0790
     24 C           7.3753   32.2993    6.3366 C.2     1  UNL1        0.0216
     25 C           8.3176   32.8516    5.2930 C.3     1  UNL1        0.1364
     26 O           9.3788   33.4723    6.0236 O.3     1  UNL1       -0.3799
     27 H          10.0856   33.6700    5.3862 H       1  UNL1        0.2108
     28 C           7.7510   33.8936    4.3015 C.3     1  UNL1        0.0636
     29 C           7.5238   33.3833    2.8823 C.3     1  UNL1        0.1244
     30 O           6.1275   33.2544    2.6110 O.3     1  UNL1       -0.3838
     31 H           6.0274   33.1784    1.6420 H       1  UNL1        0.2104
     32 C           8.2569   32.1083    2.5017 C.3     1  UNL1        0.1385
     33 C           7.6494   31.3452    1.3157 C.2     1  UNL1        0.3163
     34 O           7.3825   31.7396    0.2293 O.2     1  UNL1       -0.2502
     35 O           7.2772   30.1114    1.7235 O.3     1  UNL1       -0.4801
     36 H           6.7544   29.7644    0.9620 H       1  UNL1        0.2951
@<TRIPOS>BOND
     1    20    21    1
     2    21    22    1
     3    21     1    1
     4     1     2   ar
     5     1     5   ar
     6     2     3   ar
     7     3     6    1
     8     3     4   ar
     9     6     7   ar
    10     6    12   ar
    11     7     8   ar
    12     8     9   ar
    13     9    10    1
    14     9    11   ar
    15    11    12   ar
    16     4    13    1
    17     4     5   ar
    18    13    14   ar
    19    13    19   ar
    20    14    15   ar
    21    15    16   ar
    22    16    17    1
    23    16    18   ar
    24    18    19   ar
    25     5    23    1
    26    23    24    2
    27    25    26    1
    28    25    28    1
    29    25    24    1
    30    26    27    1
    31    29    30    1
    32    29    32    1
    33    29    28    1
    34    30    31    1
    35    32    33    1
    36    33    34    2
    37    33    35    1
    38    35    36    1



#	Name:			CHEMBL1161660
#	Creating user name:	trannguyen
#	Creation time:		Fri Mar 18 16:33:25 2022


#	Modifying user name:	trannguyen
#	Modification time:	Fri Mar 18 16:33:25 2022

@<TRIPOS>MOLECULE
CHEMBL1161660
 36 38 0 0 0
SMALL
GASTEIGER

@<TRIPOS>ATOM
      1 C           4.4526   32.3171    5.5316 C.ar    1  UNL1        0.1237
      2 N           5.6756   32.3882    5.0454 N.ar    1  UNL1       -0.2306
      3 C           6.5394   32.4413    6.1177 C.ar    1  UNL1        0.0986
      4 C           5.8238   32.4573    7.3262 C.ar    1  UNL1        0.0826
      5 N           4.5048   32.0860    6.9192 N.ar    1  UNL1       -0.2925
      6 C           7.9883   32.5304    5.8726 C.ar    1  UNL1        0.0193
      7 C           8.8957   31.8334    6.6970 C.ar    1  UNL1        0.0038
      8 C          10.2799   31.8901    6.4602 C.ar    1  UNL1        0.0297
      9 C          10.7692   32.6761    5.4255 C.ar    1  UNL1        0.1401
     10 F          12.0872   32.7395    5.1955 F       1  UNL1       -0.2042
     11 C           9.9026   33.3884    4.6147 C.ar    1  UNL1        0.0297
     12 C           8.5240   33.2731    4.8125 C.ar    1  UNL1        0.0038
     13 C           6.2398   32.6641    8.7541 C.ar    1  UNL1        0.0185
     14 C           6.4781   31.5861    9.6235 C.ar    1  UNL1        0.0015
     15 C           6.9833   31.7661   10.9200 C.ar    1  UNL1        0.0009
     16 C           7.1666   33.0471   11.4232 C.ar    1  UNL1        0.0114
     17 C           6.8784   34.1357   10.6095 C.ar    1  UNL1        0.0577
     18 CL          7.0314   35.7296   11.2436 Cl      1  UNL1       -0.0822
     19 C           6.4591   33.9513    9.2831 C.ar    1  UNL1        0.0129
     20 C           3.1616   33.5752    3.7010 C.3     1  UNL1        0.0079
     21 C           3.2006   32.3860    4.6685 C.3     1  UNL1        0.0573
     22 C           3.0593   31.1216    3.8161 C.3     1  UNL1        0.0079
     23 C           3.5054   31.5859    7.7858 C.2     1  UNL1        0.0790
     24 C           2.1858   31.8486    7.8311 C.2     1  UNL1        0.0216
     25 C           1.2119   31.4045    8.9014 C.3     1  UNL1        0.1364
     26 O          -0.0388   32.0676    8.7254 O.3     1  UNL1       -0.3799
     27 H           0.1237   32.9535    8.3552 H       1  UNL1        0.2108
     28 C           0.9574   29.8908    8.9487 C.3     1  UNL1        0.0636
     29 C           1.0111   29.2739   10.3540 C.3     1  UNL1        0.1244
     30 O           0.1009   28.1720   10.4659 O.3     1  UNL1       -0.3838
     31 H          -0.7362   28.4501   10.0263 H       1  UNL1        0.2104
     32 C           2.4226   28.7593   10.6529 C.3     1  UNL1        0.1385
     33 C           2.5526   27.2465   10.6407 C.2     1  UNL1        0.3163
     34 O           2.8740   26.6209    9.6612 O.2     1  UNL1       -0.2502
     35 O           2.1855   26.6424   11.7991 O.3     1  UNL1       -0.4801
     36 H           1.9030   27.2985   12.4815 H       1  UNL1        0.2951
@<TRIPOS>BOND
     1    20    21    1
     2    21    22    1
     3    21     1    1
     4     1     2   ar
     5     1     5   ar
     6     2     3   ar
     7     3     6    1
     8     3     4   ar
     9     6     7   ar
    10     6    12   ar
    11     7     8   ar
    12     8     9   ar
    13     9    10    1
    14     9    11   ar
    15    11    12   ar
    16     4    13    1
    17     4     5   ar
    18    13    14   ar
    19    13    19   ar
    20    14    15   ar
    21    15    16   ar
    22    16    17   ar
    23    17    18    1
    24    17    19   ar
    25     5    23    1
    26    23    24    2
    27    24    25    1
    28    25    26    1
    29    25    28    1
    30    26    27    1
    31    28    29    1
    32    29    30    1
    33    29    32    1
    34    30    31    1
    35    32    33    1
    36    33    34    2
    37    33    35    1
    38    35    36    1



#	Name:			CHEMBL1161661
#	Creating user name:	trannguyen
#	Creation time:		Fri Mar 18 16:33:25 2022


#	Modifying user name:	trannguyen
#	Modification time:	Fri Mar 18 16:33:25 2022

@<TRIPOS>MOLECULE
CHEMBL1161661
 35 37 0 0 0
SMALL
GASTEIGER

@<TRIPOS>ATOM
      1 C           8.2996   32.5121    6.1837 C.ar    1  UNL1        0.0410
      2 C           8.5818   33.0523    4.9425 C.ar    1  UNL1        0.0145
      3 C           7.3848   33.4448    4.2569 C.ar    1  UNL1        0.0173
      4 C           6.3068   32.9756    5.0574 C.ar    1  UNL1        0.0637
      5 N           6.9259   32.7709    6.3750 N.ar    1  UNL1       -0.3088
      6 C           4.7920   32.7762    4.7669 C.ar    1  UNL1        0.0163
      7 C           4.2160   31.5296    4.4637 C.ar    1  UNL1        0.0037
      8 C           2.8356   31.2598    4.4829 C.ar    1  UNL1        0.0297
      9 C           1.9690   32.3201    4.4182 C.ar    1  UNL1        0.1401
     10 F           0.6650   32.1044    4.2071 F       1  UNL1       -0.2042
     11 C           2.4720   33.6026    4.5037 C.ar    1  UNL1        0.0297
     12 C           3.8339   33.8066    4.8195 C.ar    1  UNL1        0.0037
     13 C           7.4213   34.0675    2.9047 C.ar    1  UNL1        0.0045
     14 C           8.2647   35.1565    2.6405 C.ar    1  UNL1        0.0207
     15 C           8.3523   35.6585    1.3411 C.ar    1  UNL1        0.0989
     16 N           7.5538   35.2768    0.3257 N.ar    1  UNL1       -0.2423
     17 C           6.7170   34.2695    0.5971 C.ar    1  UNL1        0.0989
     18 C           6.7280   33.5850    1.8030 C.ar    1  UNL1        0.0207
     19 C           9.1006   30.4092    7.5713 C.3     1  UNL1        0.0062
     20 C           9.3495   31.8172    7.0958 C.3     1  UNL1        0.0387
     21 C          10.7384   31.7386    6.4641 C.3     1  UNL1        0.0062
     22 C           6.2054   32.7928    7.5916 C.2     1  UNL1        0.0776
     23 C           5.5743   31.8190    8.2714 C.2     1  UNL1        0.0216
     24 C           4.5584   31.5272    9.3481 C.3     1  UNL1        0.1364
     25 O           4.2208   32.7599    9.9696 O.3     1  UNL1       -0.3799
     26 H           5.0559   33.1732   10.2555 H       1  UNL1        0.2108
     27 C           3.3024   30.7332    9.0640 C.3     1  UNL1        0.0636
     28 C           2.7465   30.0297   10.2877 C.3     1  UNL1        0.1244
     29 O           1.9675   30.9056   11.0580 O.3     1  UNL1       -0.3838
     30 H           2.6452   31.3954   11.5555 H       1  UNL1        0.2104
     31 C           1.8531   28.8457   10.0164 C.3     1  UNL1        0.1385
     32 C           1.9963   27.7508   11.0204 C.2     1  UNL1        0.3163
     33 O           1.9952   27.9575   12.2830 O.2     1  UNL1       -0.2502
     34 O           2.2213   26.5234   10.5474 O.3     1  UNL1       -0.4801
     35 H           2.2768   26.4919    9.5733 H       1  UNL1        0.2951
@<TRIPOS>BOND
     1    19    20    1
     2    20    21    1
     3    20     1    1
     4     1     2   ar
     5     1     5   ar
     6     2     3   ar
     7     3    13    1
     8     3     4   ar
     9    13    14   ar
    10    13    18   ar
    11    14    15   ar
    12    15    16   ar
    13    16    17   ar
    14    17    18   ar
    15     4     6    1
    16     4     5   ar
    17     6     7   ar
    18     6    12   ar
    19     7     8   ar
    20     8     9   ar
    21     9    10    1
    22     9    11   ar
    23    11    12   ar
    24     5    22    1
    25    22    23    2
    26    23    24    1
    27    24    25    1
    28    24    27    1
    29    25    26    1
    30    27    28    1
    31    28    29    1
    32    28    31    1
    33    29    30    1
    34    31    32    1
    35    32    33    2
    36    32    34    1
    37    34    35    1



#	Name:			CHEMBL1161662
#	Creating user name:	trannguyen
#	Creation time:		Fri Mar 18 16:33:25 2022


#	Modifying user name:	trannguyen
#	Modification time:	Fri Mar 18 16:33:25 2022

@<TRIPOS>MOLECULE
CHEMBL1161662
 35 37 0 0 0
SMALL
GASTEIGER

@<TRIPOS>ATOM
      1 C           8.5043   32.6311    6.0953 C.ar    1  UNL1        0.1237
      2 N           8.7754   32.5765    4.8078 N.ar    1  UNL1       -0.2306
      3 C           7.5853   32.5077    4.1043 C.ar    1  UNL1        0.1001
      4 C           6.4817   32.5071    4.9960 C.ar    1  UNL1        0.0827
      5 N           7.0966   32.6236    6.2990 N.ar    1  UNL1       -0.2925
      6 C           4.9757   32.4869    4.7650 C.ar    1  UNL1        0.0178
      7 C           4.1288   33.5855    5.0177 C.ar    1  UNL1        0.0038
      8 C           2.7275   33.5177    4.8469 C.ar    1  UNL1        0.0297
      9 C           2.1379   32.3695    4.3474 C.ar    1  UNL1        0.1401
     10 F           0.8142   32.3120    4.1505 F       1  UNL1       -0.2042
     11 C           2.9245   31.2790    4.0508 C.ar    1  UNL1        0.0297
     12 C           4.3113   31.3438    4.2700 C.ar    1  UNL1        0.0038
     13 C           7.6649   32.4184    2.6224 C.ar    1  UNL1        0.0383
     14 C           7.7680   33.5071    1.7591 C.ar    1  UNL1        0.0047
     15 C           7.8191   33.3875    0.3718 C.ar    1  UNL1        0.0207
     16 C           7.6961   32.1330   -0.1680 C.ar    1  UNL1        0.0989
     17 N           7.5765   31.0252    0.5916 N.ar    1  UNL1       -0.2423
     18 C           7.5717   31.1923    1.9557 C.ar    1  UNL1        0.1004
     19 C           9.9970   31.3941    7.7726 C.3     1  UNL1        0.0079
     20 C           9.6408   32.7718    7.1516 C.3     1  UNL1        0.0573
     21 C          10.8689   33.6665    6.8185 C.3     1  UNL1        0.0079
     22 C           6.4403   32.6606    7.5553 C.2     1  UNL1        0.0790
     23 C           6.1677   31.5714    8.2924 C.2     1  UNL1        0.0216
     24 C           5.2487   31.1698    9.3757 C.3     1  UNL1        0.1364
     25 O           5.1993   32.2956   10.2307 O.3     1  UNL1       -0.3799
     26 H           6.1405   32.4777   10.4416 H       1  UNL1        0.2108
     27 C           3.8862   30.6206    9.0173 C.3     1  UNL1        0.0636
     28 C           3.4771   29.4399    9.9109 C.3     1  UNL1        0.1244
     29 O           4.4242   29.3826   10.9871 O.3     1  UNL1       -0.3838
     30 H           5.3167   29.3702   10.5992 H       1  UNL1        0.2104
     31 C           2.0771   29.4392   10.5536 C.3     1  UNL1        0.1385
     32 C           1.5086   28.1684   11.0959 C.2     1  UNL1        0.3163
     33 O           2.2537   27.2547   11.5954 O.2     1  UNL1       -0.2502
     34 O           0.2011   27.9632   10.9881 O.3     1  UNL1       -0.4801
     35 H          -0.3241   28.7439   10.6851 H       1  UNL1        0.2951
@<TRIPOS>BOND
     1    19    20    1
     2    20    21    1
     3    20     1    1
     4     1     2   ar
     5     1     5   ar
     6     2     3   ar
     7     3    13    1
     8     3     4   ar
     9    13    14   ar
    10    13    18   ar
    11    14    15   ar
    12    15    16   ar
    13    16    17   ar
    14    17    18   ar
    15     4     6    1
    16     4     5   ar
    17     6     7   ar
    18     6    12   ar
    19     7     8   ar
    20     8     9   ar
    21     9    10    1
    22     9    11   ar
    23    11    12   ar
    24     5    22    1
    25    22    23    2
    26    23    24    1
    27    24    25    1
    28    24    27    1
    29    25    26    1
    30    27    28    1
    31    28    29    1
    32    28    31    1
    33    29    30    1
    34    31    32    1
    35    32    33    2
    36    32    34    1
    37    34    35    1



#	Name:			CHEMBL1161663
#	Creating user name:	trannguyen
#	Creation time:		Fri Mar 18 16:33:25 2022


#	Modifying user name:	trannguyen
#	Modification time:	Fri Mar 18 16:33:25 2022

@<TRIPOS>MOLECULE
CHEMBL1161663
 36 38 0 0 0
SMALL
GASTEIGER

@<TRIPOS>ATOM
      1 C           7.9151   32.0693    5.8936 C.ar    1  UNL1        0.1237
      2 N           8.1783   32.2365    4.6162 N.ar    1  UNL1       -0.2306
      3 C           6.9821   32.4694    3.9742 C.ar    1  UNL1        0.0986
      4 C           5.9125   32.4037    4.8967 C.ar    1  UNL1        0.0826
      5 N           6.5789   32.4117    6.1771 N.ar    1  UNL1       -0.2925
      6 C           7.0184   32.7848    2.5227 C.ar    1  UNL1        0.0193
      7 C           7.5859   31.8405    1.6326 C.ar    1  UNL1        0.0038
      8 C           7.8228   32.1373    0.2786 C.ar    1  UNL1        0.0297
      9 C           7.4295   33.3649   -0.2251 C.ar    1  UNL1        0.1401
     10 F           7.6626   33.6662   -1.5109 F       1  UNL1       -0.2042
     11 C           6.7477   34.2621    0.5875 C.ar    1  UNL1        0.0297
     12 C           6.5229   33.9628    1.9481 C.ar    1  UNL1        0.0038
     13 C           4.4325   32.5358    4.7198 C.ar    1  UNL1        0.0178
     14 C           3.5816   31.4120    4.6398 C.ar    1  UNL1        0.0038
     15 C           2.1837   31.5535    4.5278 C.ar    1  UNL1        0.0297
     16 C           1.6183   32.8202    4.4981 C.ar    1  UNL1        0.1401
     17 F           0.2857   32.9595    4.4533 F       1  UNL1       -0.2042
     18 C           2.4276   33.9445    4.5295 C.ar    1  UNL1        0.0297
     19 C           3.8221   33.8000    4.6243 C.ar    1  UNL1        0.0038
     20 C           9.2584   32.5942    7.9945 C.3     1  UNL1        0.0079
     21 C           8.9363   31.5646    6.9026 C.3     1  UNL1        0.0573
     22 C           8.4469   30.2941    7.6008 C.3     1  UNL1        0.0079
     23 C           6.0269   32.6836    7.4718 C.2     1  UNL1        0.0790
     24 C           4.8367   32.2474    7.9541 C.2     1  UNL1        0.0216
     25 C           4.1649   32.5832    9.2695 C.3     1  UNL1        0.1364
     26 O           5.1898   32.4585   10.2632 O.3     1  UNL1       -0.3799
     27 H           5.2048   33.2723   10.7969 H       1  UNL1        0.2108
     28 C           3.0294   31.6064    9.6834 C.3     1  UNL1        0.0636
     29 C           3.3435   30.0897    9.7330 C.3     1  UNL1        0.1244
     30 O           4.3060   29.8457   10.7804 O.3     1  UNL1       -0.3838
     31 H           5.1032   30.3761   10.5833 H       1  UNL1        0.2104
     32 C           2.1497   29.1727   10.0072 C.3     1  UNL1        0.1385
     33 C           2.4329   27.9746   10.9188 C.2     1  UNL1        0.3163
     34 O           2.1405   27.9679   12.0868 O.2     1  UNL1       -0.2502
     35 O           3.1124   26.9487   10.3437 O.3     1  UNL1       -0.4801
     36 H           3.3668   27.1297    9.4126 H       1  UNL1        0.2951
@<TRIPOS>BOND
     1    20    21    1
     2    21    22    1
     3    21     1    1
     4     1     2   ar
     5     1     5   ar
     6     2     3   ar
     7     3     6    1
     8     3     4   ar
     9     6     7   ar
    10     6    12   ar
    11     7     8   ar
    12     8     9   ar
    13     9    10    1
    14     9    11   ar
    15    11    12   ar
    16     4    13    1
    17     4     5   ar
    18    13    14   ar
    19    13    19   ar
    20    14    15   ar
    21    15    16   ar
    22    16    17    1
    23    16    18   ar
    24    18    19   ar
    25     5    23    1
    26    23    24    2
    27    25    26    1
    28    25    28    1
    29    25    24    1
    30    26    27    1
    31    28    29    1
    32    29    30    1
    33    29    32    1
    34    30    31    1
    35    32    33    1
    36    33    34    2
    37    33    35    1
    38    35    36    1



#	Name:			CHEMBL1161664
#	Creating user name:	trannguyen
#	Creation time:		Fri Mar 18 16:33:25 2022


#	Modifying user name:	trannguyen
#	Modification time:	Fri Mar 18 16:33:25 2022

@<TRIPOS>MOLECULE
CHEMBL1161664
 37 39 0 0 0
SMALL
GASTEIGER

@<TRIPOS>ATOM
      1 C           4.2265   32.6954    4.4015 C.ar    1  UNL1        0.1237
      2 N           4.8868   33.1220    3.3446 N.ar    1  UNL1       -0.2306
      3 C           6.1915   33.3010    3.7296 C.ar    1  UNL1        0.0986
      4 C           6.3575   33.0101    5.0903 C.ar    1  UNL1        0.0827
      5 N           5.0701   32.5757    5.5123 N.ar    1  UNL1       -0.2925
      6 C           7.5761   33.0336    5.9608 C.ar    1  UNL1        0.0193
      7 C           8.1077   34.2287    6.4752 C.ar    1  UNL1        0.0129
      8 C           9.2411   34.2355    7.2936 C.ar    1  UNL1        0.0586
      9 CL          9.9493   35.7395    7.7378 Cl      1  UNL1       -0.0822
     10 C           9.7936   33.0480    7.7451 C.ar    1  UNL1        0.0228
     11 C           9.2468   31.8531    7.3013 C.ar    1  UNL1        0.0586
     12 CL          9.8136   30.3639    7.9517 Cl      1  UNL1       -0.0822
     13 C           8.2093   31.8458    6.3617 C.ar    1  UNL1        0.0129
     14 C           7.1950   33.7479    2.7548 C.ar    1  UNL1        0.0193
     15 C           7.5922   32.9004    1.7057 C.ar    1  UNL1        0.0038
     16 C           8.5166   33.3353    0.7444 C.ar    1  UNL1        0.0297
     17 C           9.0169   34.6304    0.8050 C.ar    1  UNL1        0.1401
     18 F           9.8800   35.0586   -0.1249 F       1  UNL1       -0.2042
     19 C           8.6474   35.4822    1.8316 C.ar    1  UNL1        0.0297
     20 C           7.7925   35.0155    2.8310 C.ar    1  UNL1        0.0038
     21 C           2.0339   33.8998    4.4525 C.3     1  UNL1        0.0079
     22 C           2.7224   32.5325    4.4289 C.3     1  UNL1        0.0573
     23 C           2.2130   31.6804    3.2642 C.3     1  UNL1        0.0079
     24 C           4.7593   32.1498    6.8203 C.2     1  UNL1        0.0790
     25 C           4.3367   32.8572    7.8823 C.2     1  UNL1        0.0216
     26 C           3.9233   32.2076    9.1793 C.3     1  UNL1        0.1364
     27 O           3.3722   33.2243   10.0100 O.3     1  UNL1       -0.3799
     28 H           4.0071   33.9638   10.0216 H       1  UNL1        0.2108
     29 C           2.8855   31.0866    8.9674 C.3     1  UNL1        0.0636
     30 C           2.6752   30.2047   10.2174 C.3     1  UNL1        0.1244
     31 O           1.9098   30.9198   11.1958 O.3     1  UNL1       -0.3838
     32 H           2.3830   31.7736   11.3335 H       1  UNL1        0.2104
     33 C           1.8931   28.9353    9.8896 C.3     1  UNL1        0.1385
     34 C           1.3709   28.2676   11.1292 C.2     1  UNL1        0.3163
     35 O           2.0711   28.0405   12.1269 O.2     1  UNL1       -0.2502
     36 O           0.0868   27.8733   11.0503 O.3     1  UNL1       -0.4801
     37 H          -0.3376   28.2352   10.2343 H       1  UNL1        0.2951
@<TRIPOS>BOND
     1    21    22    1
     2    22    23    1
     3    22     1    1
     4     1     2   ar
     5     1     5   ar
     6     2     3   ar
     7     3    14    1
     8     3     4   ar
     9    14    15   ar
    10    14    20   ar
    11    15    16   ar
    12    16    17   ar
    13    17    18    1
    14    17    19   ar
    15    19    20   ar
    16     4     6    1
    17     4     5   ar
    18     6     7   ar
    19     6    13   ar
    20     7     8   ar
    21     8     9    1
    22     8    10   ar
    23    10    11   ar
    24    11    12    1
    25    11    13   ar
    26     5    24    1
    27    24    25    2
    28    25    26    1
    29    26    27    1
    30    26    29    1
    31    27    28    1
    32    29    30    1
    33    30    31    1
    34    30    33    1
    35    31    32    1
    36    33    34    1
    37    34    35    2
    38    34    36    1
    39    36    37    1



#	Name:			CHEMBL1161665
#	Creating user name:	trannguyen
#	Creation time:		Fri Mar 18 16:33:25 2022


#	Modifying user name:	trannguyen
#	Modification time:	Fri Mar 18 16:33:25 2022

@<TRIPOS>MOLECULE
CHEMBL1161665
 35 37 0 0 0
SMALL
GASTEIGER

@<TRIPOS>ATOM
      1 C           4.4846   32.5829    4.9705 C.ar    1  UNL1        0.0411
      2 C           5.7099   33.0665    4.5625 C.ar    1  UNL1        0.0160
      3 C           6.5594   33.2314    5.6886 C.ar    1  UNL1        0.0349
      4 C           5.8429   32.7931    6.8208 C.ar    1  UNL1        0.0651
      5 N           4.5480   32.3897    6.3565 N.ar    1  UNL1       -0.3088
      6 C           6.2776   32.6734    8.2670 C.ar    1  UNL1        0.0163
      7 C           6.6607   31.4397    8.8302 C.ar    1  UNL1        0.0037
      8 C           7.0214   31.3200   10.1846 C.ar    1  UNL1        0.0297
      9 C           7.0898   32.4519   10.9809 C.ar    1  UNL1        0.1401
     10 F           7.4688   32.3487   12.2620 F       1  UNL1       -0.2042
     11 C           6.7558   33.6904   10.4626 C.ar    1  UNL1        0.0297
     12 C           6.3026   33.7881    9.1374 C.ar    1  UNL1        0.0037
     13 C           7.9388   33.7446    5.6253 C.ar    1  UNL1        0.0827
     14 C           9.0360   32.8767    5.5954 C.ar    1  UNL1        0.0192
     15 C          10.3264   33.4052    5.5145 C.ar    1  UNL1        0.0031
     16 C          10.4894   34.7805    5.4381 C.ar    1  UNL1        0.0207
     17 C           9.3551   35.5704    5.4876 C.ar    1  UNL1        0.0988
     18 N           8.0997   35.0853    5.6117 N.ar    1  UNL1       -0.2438
     19 C           2.5950   31.0385    4.3069 C.3     1  UNL1        0.0062
     20 C           3.2267   32.4277    4.1293 C.3     1  UNL1        0.0387
     21 C           2.1719   33.4955    4.4324 C.3     1  UNL1        0.0062
     22 C           3.5149   31.9166    7.1955 C.2     1  UNL1        0.0776
     23 C           2.6711   32.6061    7.9856 C.2     1  UNL1        0.0216
     24 C           1.4900   31.9714    8.6724 C.3     1  UNL1        0.1364
     25 O           0.3171   32.2905    7.9306 O.3     1  UNL1       -0.3799
     26 H           0.4137   33.2146    7.6329 H       1  UNL1        0.2108
     27 C           1.6241   30.4419    8.7885 C.3     1  UNL1        0.0636
     28 C           2.4353   29.9882   10.0182 C.3     1  UNL1        0.1244
     29 O           1.8765   30.5330   11.2197 O.3     1  UNL1       -0.3838
     30 H           1.7368   31.5001   11.0489 H       1  UNL1        0.2104
     31 C           2.3993   28.4726   10.1578 C.3     1  UNL1        0.1385
     32 C           1.4931   28.0504   11.2657 C.2     1  UNL1        0.3163
     33 O           1.9022   27.6880   12.3638 O.2     1  UNL1       -0.2502
     34 O           0.1442   28.0347   10.9147 O.3     1  UNL1       -0.4801
     35 H           0.0594   28.5163   10.0783 H       1  UNL1        0.2951
@<TRIPOS>BOND
     1    19    20    1
     2    20    21    1
     3    20     1    1
     4     1     2   ar
     5     1     5   ar
     6     2     3   ar
     7     3    13    1
     8     3     4   ar
     9    13    14   ar
    10    13    18   ar
    11    14    15   ar
    12    15    16   ar
    13    16    17   ar
    14    17    18   ar
    15     4     6    1
    16     4     5   ar
    17     6     7   ar
    18     6    12   ar
    19     7     8   ar
    20     8     9   ar
    21     9    10    1
    22     9    11   ar
    23    11    12   ar
    24     5    22    1
    25    22    23    2
    26    23    24    1
    27    24    25    1
    28    24    27    1
    29    25    26    1
    30    27    28    1
    31    28    29    1
    32    28    31    1
    33    29    30    1
    34    31    32    1
    35    32    33    2
    36    32    34    1
    37    34    35    1



#	Name:			CHEMBL1163149
#	Creating user name:	trannguyen
#	Creation time:		Fri Mar 18 16:33:25 2022


#	Modifying user name:	trannguyen
#	Modification time:	Fri Mar 18 16:33:25 2022

@<TRIPOS>MOLECULE
CHEMBL1163149
 64 65 0 0 0
SMALL
GASTEIGER

@<TRIPOS>ATOM
      1 CA          8.3918   33.2248    0.8442 C.3     4  TYR4        0.1530
      2 N           9.2866   34.2359    1.4604 N.am    4  TYR4       -0.2967
      3 C           8.9911   35.5816    1.5042 C.2     3  GLY3        0.2428
      4 O           8.0045   36.0525    0.9309 O.2     3  GLY3       -0.2732
      5 H          10.1260   33.9052    1.9227 H       4  TYR4        0.1499
      6 CA          9.9576   36.4642    2.3390 C.3     3  GLY3        0.1757
      7 N           9.6529   36.8778    3.7067 N.am    3  GLY3       -0.2953
      8 C           9.0658   38.1212    3.9026 C.2     2  PHE2        0.2410
      9 O           8.9168   38.8909    2.9528 O.2     2  PHE2       -0.2733
     10 H           9.7852   36.2610    4.5007 H       3  GLY3        0.1499
     11 CA          8.5143   38.3877    5.3316 C.3     2  PHE2        0.1530
     12 N           7.0422   38.4399    5.2415 N.am    2  PHE2       -0.2969
     13 C           6.3126   39.5848    5.4473 C.2     1  GLY1        0.2387
     14 O           6.8163   40.6728    5.7167 O.2     1  GLY1       -0.2736
     15 H           6.5434   37.5944    4.9844 H       2  PHE2        0.1499
     16 CA          4.7955   39.4127    5.2574 C.3     1  GLY1        0.1515
     17 N           4.1344   39.0551    6.5233 N.3     1  GLY1       -0.3135
     18 H1          4.7878   38.5577    7.1318 H       1  GLY1        0.1193
     19 H2          3.4180   38.3560    6.3092 H       1  GLY1        0.1193
     20 CB          8.9985   37.3899    6.4086 C.3     2  PHE2        0.0553
     21 CG          8.6823   37.7405    7.8509 C.ar    2  PHE2       -0.0200
     22 CD1         8.2034   36.7758    8.7450 C.ar    2  PHE2       -0.0042
     23 CE1         8.0659   37.0805   10.1033 C.ar    2  PHE2       -0.0003
     24 CZ          8.3891   38.3519   10.5773 C.ar    2  PHE2       -0.0000
     25 CE2         8.7867   39.3419    9.6855 C.ar    2  PHE2       -0.0003
     26 CD2         8.9265   39.0375    8.3322 C.ar    2  PHE2       -0.0042
     27 N           7.6910   32.9019    3.2376 N.am    5  VAL5       -0.2970
     28 C           7.6655   32.3190    1.9507 C.2     4  TYR4        0.2410
     29 O           7.2061   31.2075    1.7158 O.2     4  TYR4       -0.2733
     30 H           8.2398   33.7501    3.3346 H       5  VAL5        0.1499
     31 CA          7.1039   32.3192    4.5086 C.3     5  VAL5        0.1485
     32 C           5.6808   32.9234    4.8008 C.2     5  VAL5        0.2406
     33 O           5.4207   34.1047    4.5690 O.2     5  VAL5       -0.2733
     34 N           4.7264   32.0800    5.3472 N.am    6  ALA6       -0.2970
     35 H           4.8534   31.0857    5.2322 H       6  ALA6        0.1499
     36 CA          3.3676   32.5350    5.7260 C.3     6  ALA6        0.1486
     37 CB          2.3482   31.7465    4.8933 C.3     6  ALA6        0.0312
     38 C           3.1375   32.2640    7.2426 C.2     6  ALA6        0.2407
     39 O           3.3545   33.1222    8.1069 O.2     6  ALA6       -0.2733
     40 N           2.5562   31.0390    7.5329 N.am    7  GLU7       -0.2954
     41 H           2.3319   30.4404    6.7387 H       7  GLU7        0.1499
     42 CA          2.3147   30.5725    8.9066 C.3     7  GLU7        0.1718
     43 C           1.3301   31.4513    9.7045 C.2     7  GLU7        0.3318
     44 O           0.2492   31.8348    9.2624 O.2     7  GLU7       -0.2485
     45 OXT         1.6946   31.7071   10.9812 O.3     7  GLU7       -0.4791
     46 HXT         2.5947   31.3939   11.1908 H       7  GLU7        0.2951
     47 CB          3.6268   30.2900    9.6920 C.3     7  GLU7        0.0427
     48 CG          4.1521   28.8537    9.8122 C.3     7  GLU7        0.1116
     49 CD          3.1969   27.8881   10.4796 C.2     7  GLU7        0.3139
     50 OE1         2.8986   26.8348   10.0019 O.2     7  GLU7       -0.2503
     51 OE2         2.6399   28.3517   11.6301 O.3     7  GLU7       -0.4802
     52 HE2         2.8934   29.2493   11.8944 H       7  GLU7        0.2951
     53 CG1         7.7950   31.3207    6.7618 C.3     5  VAL5        0.0022
     54 CB          8.0977   32.4216    5.7310 C.3     5  VAL5        0.0269
     55 CG2         8.1018   33.7038    6.5999 C.3     5  VAL5        0.0022
     56 CB          9.1364   32.4487   -0.2855 C.3     4  TYR4        0.0553
     57 CG          8.9295   33.0023   -1.7066 C.ar    4  TYR4       -0.0198
     58 CD1         7.7955   33.7734   -2.0242 C.ar    4  TYR4       -0.0011
     59 CE1         7.6558   34.3705   -3.2900 C.ar    4  TYR4        0.0363
     60 CZ          8.6516   34.2160   -4.2457 C.ar    4  TYR4        0.1337
     61 OH          8.5200   34.8566   -5.4419 O.3     4  TYR4       -0.5055
     62 CE2         9.7623   33.4358   -3.9746 C.ar    4  TYR4        0.0363
     63 CD2         9.8978   32.8421   -2.7156 C.ar    4  TYR4       -0.0011
     64 HH          9.3546   34.7595   -5.9324 H       4  TYR4        0.2922
@<TRIPOS>BOND
     1    53    54    1
     2    54    55    1
     3    31    27    1
     4    31    32    1
     5    31    54    1
     6    27    28   am
     7    27    30    1
     8    28    29    2
     9     1    56    1
    10     1     2    1
    11     1    28    1
    12    56    57    1
    13    57    58   ar
    14    57    63   ar
    15    58    59   ar
    16    59    60   ar
    17    60    61    1
    18    60    62   ar
    19    61    64    1
    20    62    63   ar
    21     2     3   am
    22     2     5    1
    23     3     4    2
    24     3     6    1
    25     6     7    1
    26     7     8   am
    27     7    10    1
    28     8     9    2
    29    11    20    1
    30    11    12    1
    31    11     8    1
    32    20    21    1
    33    21    22   ar
    34    21    26   ar
    35    22    23   ar
    36    23    24   ar
    37    24    25   ar
    38    25    26   ar
    39    12    13   am
    40    12    15    1
    41    13    14    2
    42    13    16    1
    43    16    17    1
    44    17    18    1
    45    17    19    1
    46    32    33    2
    47    32    34   am
    48    34    36    1
    49    34    35    1
    50    36    37    1
    51    36    38    1
    52    38    39    2
    53    38    40   am
    54    40    42    1
    55    40    41    1
    56    42    47    1
    57    42    43    1
    58    47    48    1
    59    48    49    1
    60    49    50    2
    61    49    51    1
    62    51    52    1
    63    43    44    2
    64    43    45    1
    65    45    46    1



#	Name:			CHEMBL1163150
#	Creating user name:	trannguyen
#	Creation time:		Fri Mar 18 16:33:25 2022


#	Modifying user name:	trannguyen
#	Modification time:	Fri Mar 18 16:33:25 2022

@<TRIPOS>MOLECULE
CHEMBL1163150
 70 71 0 0 0
SMALL
GASTEIGER

@<TRIPOS>ATOM
      1 CA          6.8455   34.7936    9.5314 C.3     4  TYR4        0.1530
      2 N           5.3762   34.8885    9.5386 N.am    4  TYR4       -0.2967
      3 C           4.6226   34.8119   10.6951 C.2     3  GLY3        0.2428
      4 O           5.1118   34.6496   11.8089 O.2     3  GLY3       -0.2732
      5 H           4.9338   35.2812    8.7168 H       4  TYR4        0.1499
      6 CA          3.1059   34.9215   10.4913 C.3     3  GLY3        0.1757
      7 N           2.6737   34.0797    9.3825 N.am    3  GLY3       -0.2953
      8 C           1.8344   32.9990    9.5337 C.2     2  PHE2        0.2410
      9 O           1.3642   32.6797   10.6260 O.2     2  PHE2       -0.2733
     10 H           3.0918   34.2753    8.4765 H       3  GLY3        0.1499
     11 CA          1.5556   32.2039    8.2365 C.3     2  PHE2        0.1530
     12 N           2.2388   32.9110    7.1249 N.am    2  PHE2       -0.2970
     13 C           1.9362   32.6996    5.7953 C.2     1  GLU1        0.2368
     14 O           1.0698   31.9015    5.4417 O.2     1  GLU1       -0.2737
     15 H           2.7638   33.7486    7.3586 H       2  PHE2        0.1499
     16 CA          2.8859   33.4148    4.7770 C.3     1  GLU1        0.1289
     17 N           2.8513   34.8548    5.1077 N.3     1  GLU1       -0.3150
     18 H1          3.5796   35.3613    4.6153 H       1  GLU1        0.1192
     19 H2          3.0432   34.9609    6.1068 H       1  GLU1        0.1192
     20 CB          4.3241   32.8494    4.8341 C.3     1  GLU1        0.0365
     21 CG          4.6082   31.5791    4.0086 C.3     1  GLU1        0.1112
     22 CD          6.0717   31.2925    3.7821 C.2     1  GLU1        0.3139
     23 OE1         6.9889   31.7064    4.4667 O.2     1  GLU1       -0.2503
     24 OE2         6.2940   30.5066    2.6964 O.3     1  GLU1       -0.4802
     25 HE2         5.4918   30.2569    2.2013 H       1  GLU1        0.2951
     26 CB          2.0138   30.7269    8.2429 C.3     2  PHE2        0.0553
     27 CG          3.1311   30.2097    9.1368 C.ar    2  PHE2       -0.0200
     28 CD1         2.9831   28.9827    9.8061 C.ar    2  PHE2       -0.0042
     29 CE1         4.0757   28.3516   10.4172 C.ar    2  PHE2       -0.0003
     30 CZ          5.3353   28.9420   10.3854 C.ar    2  PHE2       -0.0000
     31 CE2         5.4933   30.1813    9.7693 C.ar    2  PHE2       -0.0003
     32 CD2         4.4010   30.8128    9.1508 C.ar    2  PHE2       -0.0042
     33 N           7.6563   37.0601    8.8484 N.am    5  VAL5       -0.2970
     34 C           7.4870   36.1684    9.8968 C.2     4  TYR4        0.2410
     35 O           7.8002   36.4961   11.0381 O.2     4  TYR4       -0.2733
     36 H           7.4138   36.7853    7.9065 H       5  VAL5        0.1499
     37 CA          8.2754   38.3925    9.0736 C.3     5  VAL5        0.1485
     38 C           7.6112   39.4963    8.1933 C.2     5  VAL5        0.2406
     39 O           7.9873   40.6650    8.1919 O.2     5  VAL5       -0.2733
     40 N           6.5163   39.1027    7.4543 N.am    6  ALA6       -0.2970
     41 H           6.2514   38.1278    7.4726 H       6  ALA6        0.1499
     42 CA          5.7919   40.0128    6.5583 C.3     6  ALA6        0.1486
     43 CB          5.6111   39.3520    5.1967 C.3     6  ALA6        0.0312
     44 C           4.4207   40.4451    7.1343 C.2     6  ALA6        0.2407
     45 O           3.6026   39.6358    7.5648 O.2     6  ALA6       -0.2733
     46 N           4.1293   41.7903    7.0039 N.am    7  GLU7       -0.2954
     47 H           4.8713   42.4044    6.6754 H       7  GLU7        0.1499
     48 CA          2.8981   42.3889    7.5693 C.3     7  GLU7        0.1718
     49 C           2.4808   43.6298    6.7527 C.2     7  GLU7        0.3318
     50 O           3.2482   44.5031    6.3704 O.2     7  GLU7       -0.2485
     51 OXT         1.1617   43.6832    6.4590 O.3     7  GLU7       -0.4791
     52 HXT         0.6802   42.9513    6.8891 H       7  GLU7        0.2951
     53 CB          3.1207   42.7453    9.0469 C.3     7  GLU7        0.0427
     54 CG          1.8274   43.1337    9.7624 C.3     7  GLU7        0.1116
     55 CD          1.1853   42.0176   10.5297 C.2     7  GLU7        0.3139
     56 OE1         0.0991   42.1130   11.1214 O.2     7  GLU7       -0.2503
     57 OE2         1.8768   40.8888   10.5874 O.3     7  GLU7       -0.4802
     58 HE2         1.4442   40.3541   11.2845 H       7  GLU7        0.2951
     59 CG1        10.4028   37.0731    8.3818 C.3     5  VAL5        0.0022
     60 CB          9.8341   38.3451    9.0297 C.3     5  VAL5        0.0269
     61 CG2        10.5287   38.5427   10.3785 C.3     5  VAL5        0.0022
     62 CB          7.4505   34.2147    8.2334 C.3     4  TYR4        0.0553
     63 CG          8.4019   33.0616    8.4881 C.ar    4  TYR4       -0.0198
     64 CD1         9.4472   33.1764    9.4167 C.ar    4  TYR4       -0.0011
     65 CE1        10.2950   32.0926    9.6705 C.ar    4  TYR4        0.0363
     66 CZ         10.0949   30.8912    8.9986 C.ar    4  TYR4        0.1337
     67 OH         10.8937   29.8095    9.2204 O.3     4  TYR4       -0.5055
     68 CE2         9.0675   30.7581    8.0747 C.ar    4  TYR4        0.0363
     69 CD2         8.2278   31.8422    7.8151 C.ar    4  TYR4       -0.0011
     70 HH         11.5767   30.0495    9.8673 H       4  TYR4        0.2922
@<TRIPOS>BOND
     1    59    60    1
     2    60    61    1
     3    37    33    1
     4    37    38    1
     5    37    60    1
     6    33    34   am
     7    33    36    1
     8    34    35    2
     9     1    62    1
    10     1     2    1
    11     1    34    1
    12    62    63    1
    13    63    64   ar
    14    63    69   ar
    15    64    65   ar
    16    65    66   ar
    17    66    67    1
    18    66    68   ar
    19    67    70    1
    20    68    69   ar
    21     2     3   am
    22     2     5    1
    23     3     4    2
    24     3     6    1
    25     6     7    1
    26     7     8   am
    27     7    10    1
    28     8     9    2
    29    11    26    1
    30    11    12    1
    31    11     8    1
    32    26    27    1
    33    27    28   ar
    34    27    32   ar
    35    28    29   ar
    36    29    30   ar
    37    30    31   ar
    38    31    32   ar
    39    12    13   am
    40    12    15    1
    41    13    14    2
    42    13    16    1
    43    16    17    1
    44    16    20    1
    45    17    18    1
    46    17    19    1
    47    20    21    1
    48    21    22    1
    49    22    23    2
    50    22    24    1
    51    24    25    1
    52    38    39    2
    53    38    40   am
    54    40    42    1
    55    40    41    1
    56    42    43    1
    57    42    44    1
    58    44    45    2
    59    44    46   am
    60    46    48    1
    61    46    47    1
    62    48    53    1
    63    48    49    1
    64    53    54    1
    65    54    55    1
    66    55    56    2
    67    55    57    1
    68    57    58    1
    69    49    50    2
    70    49    51    1
    71    51    52    1



#	Name:			CHEMBL1163723
#	Creating user name:	trannguyen
#	Creation time:		Fri Mar 18 16:33:25 2022


#	Modifying user name:	trannguyen
#	Modification time:	Fri Mar 18 16:33:25 2022

@<TRIPOS>MOLECULE
CHEMBL1163723
 59 60 0 0 0
SMALL
GASTEIGER

@<TRIPOS>ATOM
      1 CA          3.4673   32.8813    8.3386 C.3     3  TYR3        0.1530
      2 N           5.6536   33.5573    9.2890 N.am    4  VAL4       -0.2970
      3 C           4.2979   33.5515    9.4532 C.2     3  TYR3        0.2410
      4 O           3.8259   34.1044   10.4438 O.2     3  TYR3       -0.2733
      5 H           6.0626   32.9066    8.6174 H       4  VAL4        0.1499
      6 CA          6.4991   34.1370   10.3326 C.3     4  VAL4        0.1485
      7 C           7.0425   35.5666    9.8284 C.2     4  VAL4        0.2406
      8 O           7.3524   35.7351    8.6433 O.2     4  VAL4       -0.2733
      9 N           7.5426   36.4963   10.7868 N.am    5  ALA5       -0.2970
     10 H           7.4371   36.2710   11.7727 H       5  ALA5        0.1499
     11 CA          8.3291   37.7728   10.4501 C.3     5  ALA5        0.1486
     12 CB          8.5677   38.7927   11.6041 C.3     5  ALA5        0.0312
     13 C           9.7487   37.4932    9.8801 C.2     5  ALA5        0.2407
     14 O          10.6980   37.0858   10.5441 O.2     5  ALA5       -0.2733
     15 N           9.9198   37.8499    8.5735 N.am    6  GLU6       -0.2954
     16 H           9.0922   38.1365    8.0733 H       6  GLU6        0.1499
     17 CA         11.1389   37.5820    7.8380 C.3     6  GLU6        0.1718
     18 C          12.0824   38.7756    7.9648 C.2     6  GLU6        0.3318
     19 O          12.1252   39.6859    7.1399 O.2     6  GLU6       -0.2485
     20 OXT        12.8677   38.8007    9.0593 O.3     6  GLU6       -0.4791
     21 HXT        12.8145   37.9861    9.6140 H       6  GLU6        0.2951
     22 CB         10.8068   37.3022    6.3676 C.3     6  GLU6        0.0427
     23 CG          9.3733   36.8158    6.1490 C.3     6  GLU6        0.1116
     24 CD          8.5909   37.7841    5.2776 C.2     6  GLU6        0.3139
     25 OE1         8.9872   38.8507    4.9340 O.2     6  GLU6       -0.2503
     26 OE2         7.3851   37.2753    4.8915 O.3     6  GLU6       -0.4802
     27 HE2         7.2107   36.3707    5.1806 H       6  GLU6        0.2951
     28 CG1         8.8600   33.1113   10.3588 C.3     4  VAL4        0.0022
     29 CB          7.4055   32.9811   10.9079 C.3     4  VAL4        0.0269
     30 CG2         6.9791   31.5321   10.6470 C.3     4  VAL4        0.0022
     31 N           3.7886   33.5393    7.0509 N.am    3  TYR3       -0.2967
     32 C           3.0665   33.3534    5.8946 C.2     2  GLY2        0.2428
     33 O           2.1120   32.5774    5.8318 O.2     2  GLY2       -0.2732
     34 H           4.4307   34.3245    7.0804 H       3  TYR3        0.1499
     35 CA          3.5809   34.1326    4.6759 C.3     2  GLY2        0.1757
     36 N           5.0229   34.2662    4.6857 N.am    2  GLY2       -0.2956
     37 C           5.8073   33.2840    4.1163 C.2     1  PHE1        0.2372
     38 O           5.3249   32.2636    3.6300 O.2     1  PHE1       -0.2737
     39 H           5.4632   34.9846    5.2497 H       2  GLY2        0.1499
     40 CA          7.3272   33.5507    4.1739 C.3     1  PHE1        0.1327
     41 N           7.6216   34.7582    3.3584 N.3     1  PHE1       -0.3148
     42 H1          8.6054   35.0085    3.4710 H       1  PHE1        0.1192
     43 H2          7.1071   35.5462    3.7648 H       1  PHE1        0.1192
     44 CB          7.7819   33.7805    5.6271 C.3     1  PHE1        0.0512
     45 CG          8.4337   32.6050    6.3224 C.ar    1  PHE1       -0.0203
     46 CD1         9.8189   32.5889    6.5225 C.ar    1  PHE1       -0.0042
     47 CE1        10.4168   31.5630    7.2572 C.ar    1  PHE1       -0.0003
     48 CZ          9.6475   30.5097    7.7480 C.ar    1  PHE1       -0.0000
     49 CE2         8.2706   30.5029    7.5409 C.ar    1  PHE1       -0.0003
     50 CD2         7.6640   31.5562    6.8516 C.ar    1  PHE1       -0.0042
     51 CB          3.7622   31.3636    8.2628 C.3     3  TYR3        0.0553
     52 CG          2.8097   30.4694    9.0381 C.ar    3  TYR3       -0.0198
     53 CD1         3.2723   29.5972   10.0295 C.ar    3  TYR3       -0.0011
     54 CE1         2.3783   28.7605   10.7119 C.ar    3  TYR3        0.0363
     55 CZ          1.0274   28.7656   10.3759 C.ar    3  TYR3        0.1337
     56 OH          0.1272   27.9528   10.9948 O.3     3  TYR3       -0.5055
     57 CE2         0.5483   29.6159    9.3960 C.ar    3  TYR3        0.0363
     58 CD2         1.4294   30.4916    8.7672 C.ar    3  TYR3       -0.0011
     59 HH          0.5762   27.4702   11.7070 H       3  TYR3        0.2922
@<TRIPOS>BOND
     1    28    29    1
     2    29    30    1
     3     6     2    1
     4     6     7    1
     5     6    29    1
     6     2     3   am
     7     2     5    1
     8     3     4    2
     9     1    51    1
    10     1    31    1
    11     1     3    1
    12    51    52    1
    13    52    53   ar
    14    52    58   ar
    15    53    54   ar
    16    54    55   ar
    17    55    56    1
    18    55    57   ar
    19    56    59    1
    20    57    58   ar
    21    31    32   am
    22    31    34    1
    23    32    33    2
    24    32    35    1
    25    35    36    1
    26    36    37   am
    27    36    39    1
    28    37    38    2
    29    37    40    1
    30    40    41    1
    31    40    44    1
    32    41    42    1
    33    41    43    1
    34    44    45    1
    35    45    46   ar
    36    45    50   ar
    37    46    47   ar
    38    47    48   ar
    39    48    49   ar
    40    49    50   ar
    41     7     8    2
    42     7     9   am
    43     9    11    1
    44     9    10    1
    45    11    12    1
    46    11    13    1
    47    13    14    2
    48    13    15   am
    49    15    17    1
    50    15    16    1
    51    17    22    1
    52    17    18    1
    53    22    23    1
    54    23    24    1
    55    24    25    2
    56    24    26    1
    57    26    27    1
    58    18    19    2
    59    18    20    1
    60    20    21    1



#	Name:			CHEMBL1165024
#	Creating user name:	trannguyen
#	Creation time:		Fri Mar 18 16:33:25 2022


#	Modifying user name:	trannguyen
#	Modification time:	Fri Mar 18 16:33:25 2022

@<TRIPOS>MOLECULE
CHEMBL1165024
 68 69 0 0 0
SMALL
GASTEIGER

@<TRIPOS>ATOM
      1 CA          7.2512   32.3635    5.3500 C.3     4  TYR4        0.1530
      2 N           6.6914   31.4301    4.3556 N.am    4  TYR4       -0.2967
      3 C           5.4165   31.2973    3.8788 C.2     3  GLY3        0.2428
      4 O           5.2053   30.4174    3.0467 O.2     3  GLY3       -0.2732
      5 H           7.2968   30.6792    4.0364 H       4  TYR4        0.1499
      6 CA          4.3311   32.2526    4.3833 C.3     3  GLY3        0.1757
      7 N           4.0739   32.0854    5.8026 N.am    3  GLY3       -0.2953
      8 C           3.5650   33.1322    6.5411 C.2     2  PHE2        0.2410
      9 O           3.3405   34.2147    6.0122 O.2     2  PHE2       -0.2733
     10 H           4.6273   31.4225    6.3319 H       3  GLY3        0.1499
     11 CA          3.2646   32.7775    8.0215 C.3     2  PHE2        0.1530
     12 N           2.7030   33.9938    8.6628 N.am    2  PHE2       -0.2969
     13 C           2.7113   34.3723    9.9749 C.2     1  THR1        0.2392
     14 O           3.4057   33.8113   10.8357 O.2     1  THR1       -0.2736
     15 H           2.1399   34.5671    8.0106 H       2  PHE2        0.1499
     16 CA          1.7799   35.6102   10.3137 C.3     1  THR1        0.1554
     17 N           1.7913   36.6295    9.2226 N.3     1  THR1       -0.3131
     18 H1          2.6854   37.1190    9.2290 H       1  THR1        0.1193
     19 H2          1.1037   37.3585    9.4560 H       1  THR1        0.1193
     20 CB          0.3220   35.2136   10.6600 C.3     1  THR1        0.1335
     21 CG2        -0.7211   36.2706   10.3180 C.3     1  THR1        0.0337
     22 OG1        -0.0324   33.9965   10.0127 O.3     1  THR1       -0.3826
     23 HG1        -0.0433   33.2918   10.6835 H       1  THR1        0.2104
     24 CB          2.2688   31.5898    8.1399 C.3     2  PHE2        0.0553
     25 CG          2.7070   30.4372    9.0227 C.ar    2  PHE2       -0.0200
     26 CD1         1.7858   29.4623    9.4446 C.ar    2  PHE2       -0.0042
     27 CE1         2.1985   28.3434   10.1685 C.ar    2  PHE2       -0.0003
     28 CZ          3.5343   28.2097   10.5284 C.ar    2  PHE2       -0.0000
     29 CE2         4.4523   29.1932   10.1607 C.ar    2  PHE2       -0.0003
     30 CD2         4.0437   30.2989    9.4083 C.ar    2  PHE2       -0.0042
     31 N           7.8516   34.1859    3.6795 N.am    5  VAL5       -0.2970
     32 C           8.3047   33.2374    4.5928 C.2     4  TYR4        0.2410
     33 O           9.5010   33.1475    4.8366 O.2     4  TYR4       -0.2733
     34 H           6.8968   34.4748    3.8543 H       5  VAL5        0.1499
     35 CA          8.7746   35.2258    3.1378 C.3     5  VAL5        0.1485
     36 C           8.9786   36.5005    4.0471 C.2     5  VAL5        0.2406
     37 O          10.0731   37.0777    4.0871 O.2     5  VAL5       -0.2733
     38 N           7.9959   36.8732    4.9521 N.am    6  ALA6       -0.2970
     39 H           7.0575   36.8454    4.5708 H       6  ALA6        0.1499
     40 CA          8.2628   38.0588    5.7983 C.3     6  ALA6        0.1486
     41 CB          7.1940   39.1341    5.6493 C.3     6  ALA6        0.0312
     42 C           8.4172   37.8081    7.3371 C.2     6  ALA6        0.2407
     43 O           7.5678   38.0133    8.1480 O.2     6  ALA6       -0.2733
     44 N           9.6852   37.3332    7.6372 N.am    7  GLU7       -0.2954
     45 H          10.1105   36.7870    6.8856 H       7  GLU7        0.1499
     46 CA         10.1720   37.0446    8.9827 C.3     7  GLU7        0.1718
     47 C          11.7061   37.0786    8.8770 C.2     7  GLU7        0.3318
     48 O          12.4786   36.5211    9.6335 O.2     7  GLU7       -0.2485
     49 OXT        12.1625   37.7925    7.8051 O.3     7  GLU7       -0.4791
     50 HXT        11.4450   38.2497    7.3294 H       7  GLU7        0.2951
     51 CB          9.6869   35.6861    9.5121 C.3     7  GLU7        0.0427
     52 CG          9.4049   35.6853   11.0138 C.3     7  GLU7        0.1116
     53 CD          8.3931   36.7393   11.4093 C.2     7  GLU7        0.3139
     54 OE1         8.6382   37.6750   12.1432 O.2     7  GLU7       -0.2503
     55 OE2         7.1682   36.5310   10.8574 O.3     7  GLU7       -0.4802
     56 HE2         7.1013   35.7237   10.3198 H       7  GLU7        0.2951
     57 CG1         7.5740   35.0860    0.7216 C.3     5  VAL5        0.0022
     58 CB          8.6234   35.7332    1.6303 C.3     5  VAL5        0.0269
     59 CG2         9.9266   35.9012    0.8384 C.3     5  VAL5        0.0022
     60 CB          7.8573   31.5994    6.5632 C.3     4  TYR4        0.0553
     61 CG          7.4392   32.0563    7.9526 C.ar    4  TYR4       -0.0198
     62 CD1         7.6625   31.2543    9.0800 C.ar    4  TYR4       -0.0011
     63 CE1         7.3476   31.7225   10.3639 C.ar    4  TYR4        0.0363
     64 CZ          6.7691   32.9778   10.5233 C.ar    4  TYR4        0.1337
     65 OH          6.4609   33.4743   11.7545 O.3     4  TYR4       -0.5055
     66 CE2         6.4974   33.7704    9.4216 C.ar    4  TYR4        0.0363
     67 CD2         6.8585   33.3227    8.1497 C.ar    4  TYR4       -0.0011
     68 HH          6.7713   32.8486   12.4284 H       4  TYR4        0.2922
@<TRIPOS>BOND
     1    57    58    1
     2    58    59    1
     3    35    31    1
     4    35    36    1
     5    35    58    1
     6    31    32   am
     7    31    34    1
     8    32    33    2
     9     1    60    1
    10     1     2    1
    11     1    32    1
    12    60    61    1
    13    61    62   ar
    14    61    67   ar
    15    62    63   ar
    16    63    64   ar
    17    64    65    1
    18    64    66   ar
    19    65    68    1
    20    66    67   ar
    21     2     3   am
    22     2     5    1
    23     3     4    2
    24     3     6    1
    25     6     7    1
    26     7     8   am
    27     7    10    1
    28     8     9    2
    29    11    24    1
    30    11    12    1
    31    11     8    1
    32    24    25    1
    33    25    26   ar
    34    25    30   ar
    35    26    27   ar
    36    27    28   ar
    37    28    29   ar
    38    29    30   ar
    39    12    13   am
    40    12    15    1
    41    13    14    2
    42    13    16    1
    43    16    17    1
    44    16    20    1
    45    17    18    1
    46    17    19    1
    47    20    21    1
    48    20    22    1
    49    22    23    1
    50    36    37    2
    51    36    38   am
    52    38    40    1
    53    38    39    1
    54    40    41    1
    55    40    42    1
    56    42    43    2
    57    42    44   am
    58    44    46    1
    59    44    45    1
    60    46    51    1
    61    46    47    1
    62    51    52    1
    63    52    53    1
    64    53    54    2
    65    53    55    1
    66    55    56    1
    67    47    48    2
    68    47    49    1
    69    49    50    1



#	Name:			CHEMBL1165099
#	Creating user name:	trannguyen
#	Creation time:		Fri Mar 18 16:33:25 2022


#	Modifying user name:	trannguyen
#	Modification time:	Fri Mar 18 16:33:25 2022

@<TRIPOS>MOLECULE
CHEMBL1165099
 49 50 0 0 0
SMALL
GASTEIGER

@<TRIPOS>ATOM
      1 C           1.3142   35.7766   10.1435 C.2     3  PRO3        0.2409
      2 O           0.0986   35.9387   10.2649 O.2     3  PRO3       -0.2733
      3 N           2.1115   36.7335    9.5320 N.am    4  GLU4       -0.2970
      4 H           3.0200   36.4312    9.1686 H       4  GLU4        0.1499
      5 C           1.3935   32.4724    9.3124 C.2     2  UNK2        0.2442
      6 O           0.2589   32.5916    9.7840 O.2     2  UNK2       -0.2731
      7 N           2.3109   33.4933    9.5304 N.am    3  PRO3       -0.2717
      8 CD          3.7165   33.5557    9.1386 C.3     3  PRO3        0.0939
      9 CG          4.4155   34.4104   10.1863 C.3     3  PRO3        0.0237
     10 CB          3.3716   34.7040   11.2578 C.3     3  PRO3        0.0310
     11 CA          2.0106   34.4650   10.5974 C.3     3  PRO3        0.1518
     12 C           1.8261   31.2026    8.5187 C.3     2  UNK2        0.1532
     13 C           2.3900   29.5012   10.2988 C.2     1  GLY1        0.2387
     14 O           3.4089   30.0757   10.6697 O.2     1  GLY1       -0.2736
     15 N           1.5682   29.9773    9.2978 N.am    2  UNK2       -0.2969
     16 H           0.7139   29.4706    9.1269 H       2  UNK2        0.1499
     17 N           0.3894   28.1769   11.0194 N.3     1  GLY1       -0.3135
     18 CA          1.8595   28.2532   11.0215 C.3     1  GLY1        0.1515
     19 H1          0.1137   27.2643   11.3830 H       1  GLY1        0.1193
     20 H2         -0.0156   28.8658   11.6430 H       1  GLY1        0.1193
     21 C           1.2536   31.1894    7.0859 C.3     2  UNK2        0.0553
     22 C           2.0873   31.8428    5.9881 C.ar    2  UNK2       -0.0199
     23 C           1.5335   32.5179    4.8884 C.ar    2  UNK2       -0.0019
     24 C           2.3466   33.1418    3.9391 C.ar    2  UNK2        0.0293
     25 C           3.7254   33.0719    4.0653 C.ar    2  UNK2        0.1401
     26 F           4.5001   33.6695    3.1527 F       2  UNK2       -0.2042
     27 C           4.3061   32.3878    5.1246 C.ar    2  UNK2        0.0293
     28 C           3.4906   31.7780    6.0849 C.ar    2  UNK2       -0.0019
     29 CA          1.5222   37.9768    9.0215 C.3     4  GLU4        0.1491
     30 C           2.2420   38.4563    7.7226 C.2     4  GLU4        0.2407
     31 O           2.5607   37.6849    6.8214 O.2     4  GLU4       -0.2733
     32 N           2.5470   39.8021    7.7032 N.am    5  GLY5       -0.2953
     33 H           2.1256   40.4093    8.3958 H       5  GLY5        0.1499
     34 CA          3.1792   40.4359    6.5543 C.3     5  GLY5        0.1757
     35 C           3.3537   41.9496    6.7612 C.2     5  GLY5        0.2429
     36 O           4.4376   42.4625    7.0310 O.2     5  GLY5       -0.2732
     37 N           2.1993   42.6948    6.6630 N.am    6  GLY6       -0.2936
     38 H           1.3032   42.2656    6.4556 H       6  GLY6        0.1500
     39 CA          2.2201   44.1467    6.7977 C.3     6  GLY6        0.2004
     40 C           1.1232   44.6788    7.7082 C.2     6  GLY6        0.3341
     41 O           1.1857   44.7955    8.9215 O.2     6  GLY6       -0.2484
     42 OXT         0.0033   45.0583    7.0494 O.3     6  GLY6       -0.4790
     43 HXT        -0.5819   45.3824    7.7673 H       6  GLY6        0.2951
     44 CB          1.5147   39.1196   10.0533 C.3     4  GLU4        0.0406
     45 CG          0.1366   39.7247   10.3627 C.3     4  GLU4        0.1116
     46 CD          0.1631   41.2141   10.4855 C.2     4  GLU4        0.3139
     47 OE1        -0.3305   41.9048   11.3474 O.2     4  GLU4       -0.2503
     48 OE2         0.7750   41.7834    9.4289 O.3     4  GLU4       -0.4802
     49 HE2         0.4175   42.6838    9.5013 H       4  GLU4        0.2951
@<TRIPOS>BOND
     1    17    18    1
     2    17    19    1
     3    17    20    1
     4    18    13    1
     5    13    14    2
     6    13    15   am
     7    15    12    1
     8    15    16    1
     9    12    21    1
    10    12     5    1
    11    21    22    1
    12    22    23   ar
    13    22    28   ar
    14    23    24   ar
    15    24    25   ar
    16    25    26    1
    17    25    27   ar
    18    27    28   ar
    19     5     6    2
    20     5     7   am
    21     7     8    1
    22     7    11    1
    23     8     9    1
    24     9    10    1
    25    10    11    1
    26    11     1    1
    27     1     2    2
    28     1     3   am
    29     3    29    1
    30     3     4    1
    31    29    44    1
    32    29    30    1
    33    44    45    1
    34    45    46    1
    35    46    47    2
    36    46    48    1
    37    48    49    1
    38    30    31    2
    39    30    32   am
    40    32    34    1
    41    32    33    1
    42    34    35    1
    43    35    36    2
    44    35    37   am
    45    37    39    1
    46    37    38    1
    47    39    40    1
    48    40    41    2
    49    40    42    1
    50    42    43    1



#	Name:			CHEMBL2111268
#	Creating user name:	trannguyen
#	Creation time:		Fri Mar 18 16:33:25 2022


#	Modifying user name:	trannguyen
#	Modification time:	Fri Mar 18 16:33:25 2022

@<TRIPOS>MOLECULE
CHEMBL2111268
 31 34 0 0 0
SMALL
GASTEIGER

@<TRIPOS>ATOM
      1 C           3.2263   33.6350    4.4735 C.3     1  UNL1        0.0521
      2 C           4.6920   33.3001    4.3863 C.ar    1  UNL1        0.0593
      3 N           5.1917   33.2998    3.1244 N.ar    1  UNL1       -0.2497
      4 C           6.4988   33.0271    2.9434 C.ar    1  UNL1        0.0809
      5 C           7.3235   32.7316    4.0293 C.ar    1  UNL1        0.0191
      6 C           6.8379   32.7046    5.3595 C.ar    1  UNL1        0.0026
      7 C           5.4637   33.0097    5.5335 C.ar    1  UNL1        0.0134
      8 C           7.8019   32.3660    6.4609 C.ar    1  UNL1        0.0002
      9 C           8.5506   33.3760    7.1129 C.ar    1  UNL1        0.0023
     10 C           9.4376   33.0899    8.1593 C.ar    1  UNL1        0.0296
     11 C           9.6143   31.7781    8.5634 C.ar    1  UNL1        0.1401
     12 F          10.4766   31.4955    9.5482 F       1  UNL1       -0.2042
     13 C           8.9000   30.7566    7.9601 C.ar    1  UNL1        0.0296
     14 C           7.9904   31.0536    6.9357 C.ar    1  UNL1        0.0023
     15 C           6.9790   33.0616    1.5412 C.ar    1  UNL1        0.0176
     16 C           6.6443   34.1308    0.6864 C.ar    1  UNL1        0.0015
     17 C           7.0881   34.1780   -0.6405 C.ar    1  UNL1        0.0000
     18 C           7.8853   33.1559   -1.1450 C.ar    1  UNL1        0.0000
     19 C           8.2401   32.0913   -0.3232 C.ar    1  UNL1        0.0000
     20 C           7.7939   32.0474    1.0028 C.ar    1  UNL1        0.0015
     21 C           4.7864   33.0568    6.8438 C.2     1  UNL1        0.0001
     22 C           4.3124   31.9711    7.4771 C.2     1  UNL1        0.0168
     23 C           3.5274   32.0283    8.7650 C.3     1  UNL1        0.1933
     24 C           2.1768   31.3447    8.6210 C.3     1  UNL1        0.0781
     25 C           1.3945   31.5335    9.9074 C.3     1  UNL1        0.1256
     26 O           2.0417   30.8256   10.9627 O.3     1  UNL1       -0.3837
     27 C           1.2681   33.0008   10.2575 C.3     1  UNL1        0.1388
     28 C           2.5313   33.8042   10.0743 C.2     1  UNL1        0.3197
     29 O           2.6970   34.8588   10.6726 O.2     1  UNL1       -0.2500
     30 O           3.3758   33.4207    9.0886 O.3     1  UNL1       -0.4475
     31 H           1.4556   30.8411   11.7420 H       1  UNL1        0.2104
@<TRIPOS>BOND
     1     1     2    1
     2     2     3   ar
     3     2     7   ar
     4     3     4   ar
     5     4    15    1
     6     4     5   ar
     7    15    16   ar
     8    15    20   ar
     9    16    17   ar
    10    17    18   ar
    11    18    19   ar
    12    19    20   ar
    13     5     6   ar
    14     6     8    1
    15     6     7   ar
    16     8     9   ar
    17     8    14   ar
    18     9    10   ar
    19    10    11   ar
    20    11    12    1
    21    11    13   ar
    22    13    14   ar
    23     7    21    1
    24    21    22    2
    25    22    23    1
    26    23    24    1
    27    23    30    1
    28    24    25    1
    29    25    27    1
    30    25    26    1
    31    26    31    1
    32    27    28    1
    33    28    29    2
    34    28    30    1



#	Name:			CHEMBL2367470
#	Creating user name:	trannguyen
#	Creation time:		Fri Mar 18 16:33:25 2022


#	Modifying user name:	trannguyen
#	Modification time:	Fri Mar 18 16:33:25 2022

@<TRIPOS>MOLECULE
CHEMBL2367470
 35 37 0 0 0
SMALL
GASTEIGER

@<TRIPOS>ATOM
      1 C           3.8794   32.0097    6.4419 C.ar    1  UNL1        0.0409
      2 C           3.7580   32.2948    5.0342 C.ar    1  UNL1        0.1739
      3 N           4.8440   32.9406    4.6112 N.ar    1  UNL1       -0.1598
      4 N           5.7373   32.9339    5.6313 N.ar    1  UNL1       -0.2123
      5 C           5.1654   32.4675    6.8347 C.ar    1  UNL1        0.0858
      6 C           5.8391   32.5458    8.1700 C.ar    1  UNL1        0.0179
      7 C           6.7564   31.5573    8.6007 C.ar    1  UNL1        0.0038
      8 C           7.3189   31.5652    9.8858 C.ar    1  UNL1        0.0297
      9 C           7.0848   32.6386   10.7247 C.ar    1  UNL1        0.1401
     10 F           7.6463   32.6688   11.9407 F       1  UNL1       -0.2042
     11 C           6.2558   33.6733   10.3152 C.ar    1  UNL1        0.0297
     12 C           5.5988   33.5987    9.0722 C.ar    1  UNL1        0.0038
     13 C           7.0761   33.3691    5.3188 C.ar    1  UNL1        0.1637
     14 C           8.0676   32.3864    5.1801 C.ar    1  UNL1        0.0388
     15 C           9.3839   32.7709    4.9358 C.ar    1  UNL1        0.0047
     16 C           9.6826   34.1199    4.8217 C.ar    1  UNL1        0.0208
     17 C           8.6462   35.0309    4.9533 C.ar    1  UNL1        0.1006
     18 N           7.3580   34.6903    5.1979 N.ar    1  UNL1       -0.2250
     19 C           2.6600   32.0289    4.0081 C.3     1  UNL1        0.4365
     20 F           1.3797   32.1167    4.4369 F       1  UNL1       -0.1643
     21 F           2.7401   32.9078    2.9667 F       1  UNL1       -0.1643
     22 F           2.7829   30.7829    3.4641 F       1  UNL1       -0.1643
     23 C           2.2051   32.1690    8.2416 C.2     1  UNL1        0.0027
     24 C           2.8423   31.4735    7.2947 C.2     1  UNL1        0.0008
     25 C           1.2453   31.6736    9.2824 C.3     1  UNL1        0.1349
     26 O           0.0136   32.3969    9.1459 O.3     1  UNL1       -0.3800
     27 H           0.1816   33.3102    9.4302 H       1  UNL1        0.2108
     28 C           0.9304   30.1854    9.0306 C.3     1  UNL1        0.0634
     29 C           1.0871   29.3004   10.2716 C.3     1  UNL1        0.1188
     30 O           0.2287   28.1669   10.0935 O.3     1  UNL1       -0.3840
     31 H           0.3240   27.6497   10.9223 H       1  UNL1        0.2104
     32 C           2.5156   28.8109   10.4375 C.3     1  UNL1        0.0710
     33 O           2.9741   26.5659    9.7045 O.co2   1  UNL1       -0.5491
     34 C           2.6072   27.3300   10.6248 C.2     1  UNL1        0.0528
     35 O           2.1969   26.8487   11.7428 O.co2   1  UNL1       -0.5491
@<TRIPOS>UNITY_ATOM_ATTR
33 1
charge -1
@<TRIPOS>BOND
     1    33    34   ar
     2    34    35   ar
     3    34    32    1
     4    29    30    1
     5    29    28    1
     6    29    32    1
     7    30    31    1
     8    25    26    1
     9    25    23    1
    10    25    28    1
    11    26    27    1
    12    23    24    2
    13    24     1    1
    14     1     2   ar
    15     1     5   ar
    16     2    19    1
    17     2     3   ar
    18    19    20    1
    19    19    21    1
    20    19    22    1
    21     3     4   ar
    22     4    13    1
    23     4     5   ar
    24    13    14   ar
    25    13    18   ar
    26    14    15   ar
    27    15    16   ar
    28    16    17   ar
    29    17    18   ar
    30     5     6    1
    31     6     7   ar
    32     6    12   ar
    33     7     8   ar
    34     8     9   ar
    35     9    10    1
    36     9    11   ar
    37    11    12   ar



#	Name:			CHEMBL2367471
#	Creating user name:	trannguyen
#	Creation time:		Fri Mar 18 16:33:25 2022


#	Modifying user name:	trannguyen
#	Modification time:	Fri Mar 18 16:33:25 2022

@<TRIPOS>MOLECULE
CHEMBL2367471
 37 40 0 0 0
SMALL
GASTEIGER

@<TRIPOS>ATOM
      1 C           4.4631   32.6021    5.5258 C.ar    1  UNL1        0.0800
      2 N           5.4940   33.4511    5.4146 N.ar    1  UNL1       -0.1678
      3 N           6.3703   32.9974    6.3781 N.ar    1  UNL1       -0.2070
      4 C           5.6142   32.5457    7.4743 C.ar    1  UNL1        0.0860
      5 C           4.3839   32.2002    6.8882 C.ar    1  UNL1        0.0327
      6 C           7.7508   33.1644    6.1494 C.ar    1  UNL1        0.1953
      7 N           8.6714   32.2417    6.3169 N.ar    1  UNL1       -0.2204
      8 C           9.9116   32.7538    5.9302 C.ar    1  UNL1        0.0895
      9 C          11.1506   32.0784    5.9595 C.ar    1  UNL1        0.0197
     10 C          12.3119   32.7266    5.5134 C.ar    1  UNL1        0.0016
     11 C          12.2563   34.0309    5.0329 C.ar    1  UNL1        0.0006
     12 C          11.0471   34.7267    5.0053 C.ar    1  UNL1        0.0081
     13 C           9.8932   34.0722    5.4664 C.ar    1  UNL1        0.0500
     14 S           8.2933   34.6804    5.5712 S.2     1  UNL1       -0.0472
     15 C           6.1032   32.4324    8.8668 C.ar    1  UNL1        0.0180
     16 C           6.4310   33.5750    9.6202 C.ar    1  UNL1        0.0038
     17 C           6.9621   33.4664   10.9123 C.ar    1  UNL1        0.0297
     18 C           7.1372   32.2134   11.4787 C.ar    1  UNL1        0.1401
     19 F           7.6297   32.1054   12.7193 F       1  UNL1       -0.2042
     20 C           6.8103   31.0678   10.7691 C.ar    1  UNL1        0.0297
     21 C           6.3181   31.1768    9.4625 C.ar    1  UNL1        0.0038
     22 C           3.8927   33.2779    3.1542 C.3     1  UNL1        0.0064
     23 C           3.5150   32.4170    4.3600 C.3     1  UNL1        0.0421
     24 C           3.4155   30.9485    3.9176 C.3     1  UNL1        0.0064
     25 C           3.2415   31.7003    7.5817 C.2     1  UNL1        0.0005
     26 C           2.3167   32.4065    8.2543 C.2     1  UNL1        0.0027
     27 C           1.1939   31.7975    9.0689 C.3     1  UNL1        0.1349
     28 O          -0.0287   32.4143    8.6719 O.3     1  UNL1       -0.3800
     29 H          -0.7408   31.7744    8.8999 H       1  UNL1        0.2108
     30 C           1.1376   30.2687    8.8772 C.3     1  UNL1        0.0634
     31 C           1.2938   29.5019   10.2035 C.3     1  UNL1        0.1188
     32 O           0.1757   28.6286   10.4090 O.3     1  UNL1       -0.3840
     33 H           0.5107   27.7250   10.2171 H       1  UNL1        0.2104
     34 C           2.6207   28.7634   10.3680 C.3     1  UNL1        0.0710
     35 C           2.6010   27.2615   10.6443 C.2     1  UNL1        0.0528
     36 O           2.1338   26.9310   11.7581 O.co2   1  UNL1       -0.5491
     37 O           3.0411   26.5284    9.7027 O.co2   1  UNL1       -0.5491
@<TRIPOS>UNITY_ATOM_ATTR
36 1
charge -1
@<TRIPOS>BOND
     1    22    23    1
     2    23    24    1
     3    23     1    1
     4     1     2   ar
     5     1     5   ar
     6     2     3   ar
     7     3     6    1
     8     3     4   ar
     9     6     7   ar
    10     6    14   ar
    11     7     8   ar
    12     8     9   ar
    13     8    13   ar
    14     9    10   ar
    15    10    11   ar
    16    11    12   ar
    17    12    13   ar
    18    13    14   ar
    19     4    15    1
    20     4     5   ar
    21    15    16   ar
    22    15    21   ar
    23    16    17   ar
    24    17    18   ar
    25    18    19    1
    26    18    20   ar
    27    20    21   ar
    28     5    25    1
    29    25    26    2
    30    26    27    1
    31    27    28    1
    32    27    30    1
    33    28    29    1
    34    30    31    1
    35    31    32    1
    36    31    34    1
    37    32    33    1
    38    34    35    1
    39    35    36   ar
    40    35    37   ar



#	Name:			CHEMBL2367475
#	Creating user name:	trannguyen
#	Creation time:		Fri Mar 18 16:33:25 2022


#	Modifying user name:	trannguyen
#	Modification time:	Fri Mar 18 16:33:25 2022

@<TRIPOS>MOLECULE
CHEMBL2367475
 38 41 0 0 0
SMALL
GASTEIGER

@<TRIPOS>ATOM
      1 C           7.1036   33.0070    8.3607 C.ar    1  UNL1        0.0800
      2 N           5.9597   32.7687    9.0222 N.ar    1  UNL1       -0.1682
      3 N           5.1313   32.2264    8.0660 N.ar    1  UNL1       -0.2125
      4 C           5.5486   32.5290    6.7733 C.ar    1  UNL1        0.0855
      5 C           6.8921   32.8605    6.9560 C.ar    1  UNL1        0.0327
      6 C           3.9802   31.5160    8.5326 C.ar    1  UNL1        0.1637
      7 C           2.7099   31.9818    8.2245 C.ar    1  UNL1        0.0388
      8 C           1.6189   31.2925    8.7359 C.ar    1  UNL1        0.0046
      9 C           1.8196   30.1637    9.5362 C.ar    1  UNL1        0.0178
     10 C           0.7379   29.4709   10.1000 C.ar    1  UNL1        0.0015
     11 C           0.9612   28.3564   10.9037 C.ar    1  UNL1        0.0001
     12 C           2.2617   27.9310   11.1451 C.ar    1  UNL1        0.0015
     13 C           3.3370   28.6198   10.5779 C.ar    1  UNL1        0.0192
     14 C           3.1440   29.7332    9.7710 C.ar    1  UNL1        0.0829
     15 N           4.2153   30.3685    9.2547 N.ar    1  UNL1       -0.2265
     16 C           4.6830   32.5028    5.5572 C.ar    1  UNL1        0.0179
     17 C           4.3795   31.3016    4.8917 C.ar    1  UNL1        0.0038
     18 C           3.5318   31.2765    3.7744 C.ar    1  UNL1        0.0297
     19 C           2.9371   32.4480    3.3348 C.ar    1  UNL1        0.1401
     20 F           2.0651   32.4149    2.3191 F       1  UNL1       -0.2042
     21 C           3.2347   33.6560    3.9451 C.ar    1  UNL1        0.0297
     22 C           4.1375   33.6876    5.0177 C.ar    1  UNL1        0.0038
     23 C           8.1059   33.6339   10.6300 C.3     1  UNL1        0.0064
     24 C           8.3463   33.4350    9.1288 C.3     1  UNL1        0.0421
     25 C           9.5026   32.4345    8.9603 C.3     1  UNL1        0.0064
     26 C           7.7784   33.2049    5.9025 C.2     1  UNL1        0.0005
     27 C           7.8257   34.3354    5.1949 C.2     1  UNL1        0.0027
     28 C           8.6823   34.5346    3.9670 C.3     1  UNL1        0.1349
     29 O           9.6002   33.4522    3.9272 O.3     1  UNL1       -0.3800
     30 H          10.3959   33.8671    3.5112 H       1  UNL1        0.2108
     31 C           7.9461   34.6545    2.6192 C.3     1  UNL1        0.0634
     32 C           6.8009   33.6767    2.2875 C.3     1  UNL1        0.1188
     33 O           6.4532   33.9750    0.9095 O.3     1  UNL1       -0.3840
     34 H           5.8529   33.2691    0.6122 H       1  UNL1        0.2104
     35 C           7.0401   32.1724    2.3570 C.3     1  UNL1        0.0710
     36 C           7.9599   31.5292    1.3317 C.2     1  UNL1        0.0528
     37 O           7.4067   31.2293    0.2164 O.co2   1  UNL1       -0.5491
     38 O           9.1454   31.3928    1.6887 O.co2   1  UNL1       -0.5491
@<TRIPOS>UNITY_ATOM_ATTR
37 1
charge -1
@<TRIPOS>BOND
     1    23    24    1
     2    24    25    1
     3    24     1    1
     4     1     2   ar
     5     1     5   ar
     6     2     3   ar
     7     3     6    1
     8     3     4   ar
     9     6     7   ar
    10     6    15   ar
    11     7     8   ar
    12     8     9   ar
    13     9    10   ar
    14     9    14   ar
    15    10    11   ar
    16    11    12   ar
    17    12    13   ar
    18    13    14   ar
    19    14    15   ar
    20     4    16    1
    21     4     5   ar
    22    16    17   ar
    23    16    22   ar
    24    17    18   ar
    25    18    19   ar
    26    19    20    1
    27    19    21   ar
    28    21    22   ar
    29     5    26    1
    30    26    27    2
    31    27    28    1
    32    28    29    1
    33    28    31    1
    34    29    30    1
    35    31    32    1
    36    32    33    1
    37    32    35    1
    38    33    34    1
    39    35    36    1
    40    36    37   ar
    41    36    38   ar



#	Name:			CHEMBL2367478
#	Creating user name:	trannguyen
#	Creation time:		Fri Mar 18 16:33:25 2022


#	Modifying user name:	trannguyen
#	Modification time:	Fri Mar 18 16:33:25 2022

@<TRIPOS>MOLECULE
CHEMBL2367478
 34 36 0 0 0
SMALL
GASTEIGER

@<TRIPOS>ATOM
      1 C           3.8831   32.5063    5.5750 C.ar    1  UNL1        0.0800
      2 N           5.0096   33.0060    5.0834 N.ar    1  UNL1       -0.1695
      3 N           5.9615   32.8573    6.0474 N.ar    1  UNL1       -0.2300
      4 C           5.3845   32.4415    7.2808 C.ar    1  UNL1        0.0839
      5 C           4.0694   32.0541    6.9223 C.ar    1  UNL1        0.0327
      6 C           6.0800   32.5005    8.6100 C.ar    1  UNL1        0.0179
      7 C           6.7340   31.3749    9.1519 C.ar    1  UNL1        0.0038
      8 C           7.2897   31.4037   10.4447 C.ar    1  UNL1        0.0297
      9 C           7.4007   32.6090   11.1202 C.ar    1  UNL1        0.1401
     10 F           7.9875   32.6567   12.3217 F       1  UNL1       -0.2042
     11 C           6.8676   33.7592   10.5702 C.ar    1  UNL1        0.0297
     12 C           6.1058   33.6654    9.3965 C.ar    1  UNL1        0.0038
     13 C           7.3199   33.1572    5.6524 C.ar    1  UNL1        0.0828
     14 C           8.3409   32.2328    5.9647 C.ar    1  UNL1        0.0191
     15 C           9.6757   32.4758    5.6185 C.ar    1  UNL1        0.0015
     16 C          10.0113   33.6163    4.8998 C.ar    1  UNL1        0.0001
     17 C           9.0203   34.5338    4.5760 C.ar    1  UNL1        0.0015
     18 C           7.7007   34.3318    4.9997 C.ar    1  UNL1        0.0191
     19 C           2.2954   34.0138    4.3070 C.3     1  UNL1        0.0064
     20 C           2.6095   32.5730    4.7351 C.3     1  UNL1        0.0421
     21 C           2.6179   31.6752    3.4877 C.3     1  UNL1        0.0064
     22 C           2.9905   31.4818    7.6968 C.2     1  UNL1        0.0005
     23 C           2.2149   32.0648    8.6166 C.2     1  UNL1        0.0027
     24 C           0.9619   31.5757    9.2656 C.3     1  UNL1        0.1349
     25 O          -0.0427   32.4881    8.8522 O.3     1  UNL1       -0.3800
     26 H          -0.1912   32.3393    7.9040 H       1  UNL1        0.2108
     27 C           0.5912   30.1022    9.0354 C.3     1  UNL1        0.0634
     28 C           0.8125   29.2343   10.2892 C.3     1  UNL1        0.1188
     29 O          -0.0808   28.1251   10.2747 O.3     1  UNL1       -0.3840
     30 H           0.4194   27.3514    9.9167 H       1  UNL1        0.2104
     31 C           2.2553   28.7653   10.4878 C.3     1  UNL1        0.0710
     32 C           2.4938   27.2894   10.6526 C.2     1  UNL1        0.0528
     33 O           3.0295   26.6706    9.6835 O.co2   1  UNL1       -0.5491
     34 O           2.2641   26.8084   11.8059 O.co2   1  UNL1       -0.5491
@<TRIPOS>UNITY_ATOM_ATTR
33 1
charge -1
@<TRIPOS>BOND
     1    19    20    1
     2    20    21    1
     3    20     1    1
     4     1     2   ar
     5     1     5   ar
     6     2     3   ar
     7     3    13    1
     8     3     4   ar
     9    13    14   ar
    10    13    18   ar
    11    14    15   ar
    12    15    16   ar
    13    16    17   ar
    14    17    18   ar
    15     4     6    1
    16     4     5   ar
    17     6     7   ar
    18     6    12   ar
    19     7     8   ar
    20     8     9   ar
    21     9    10    1
    22     9    11   ar
    23    11    12   ar
    24     5    22    1
    25    22    23    2
    26    23    24    1
    27    24    25    1
    28    24    27    1
    29    25    26    1
    30    27    28    1
    31    28    29    1
    32    28    31    1
    33    29    30    1
    34    31    32    1
    35    32    33   ar
    36    32    34   ar



#	Name:			CHEMBL2368185
#	Creating user name:	trannguyen
#	Creation time:		Fri Mar 18 16:33:25 2022


#	Modifying user name:	trannguyen
#	Modification time:	Fri Mar 18 16:33:25 2022

@<TRIPOS>MOLECULE
CHEMBL2368185
 34 37 0 0 0
SMALL
GASTEIGER

@<TRIPOS>ATOM
      1 C           3.5979   31.9779    5.6435 C.ar    1  UNL1        0.0617
      2 N           2.8077   31.3644    6.5501 N.ar    1  UNL1       -0.2309
      3 C           3.3318   31.0932    7.7531 C.ar    1  UNL1        0.1618
      4 N           4.5841   31.4042    8.1264 N.ar    1  UNL1       -0.2266
      5 C           5.3891   32.0151    7.2161 C.ar    1  UNL1        0.0840
      6 C           4.9293   32.3145    5.9230 C.ar    1  UNL1        0.0311
      7 C           2.4659   30.3897    8.7133 C.ar    1  UNL1        0.0359
      8 C           1.0647   30.3900    8.5776 C.ar    1  UNL1        0.0053
      9 C           0.2504   29.7026    9.4836 C.ar    1  UNL1        0.0297
     10 C           0.8287   29.0173   10.5443 C.ar    1  UNL1        0.1401
     11 F           0.0479   28.3625   11.4133 F       1  UNL1       -0.2042
     12 C           2.2054   29.0009   10.7146 C.ar    1  UNL1        0.0297
     13 C           3.0173   29.6789    9.8014 C.ar    1  UNL1        0.0053
     14 C           6.7601   32.2979    7.7488 C.ar    1  UNL1        0.0179
     15 C           7.1224   33.5240    8.3420 C.ar    1  UNL1        0.0038
     16 C           8.4216   33.7655    8.8098 C.ar    1  UNL1        0.0297
     17 C           9.3785   32.7666    8.7296 C.ar    1  UNL1        0.1401
     18 F          10.6188   32.9990    9.1789 F       1  UNL1       -0.2042
     19 C           9.0577   31.5276    8.2001 C.ar    1  UNL1        0.0297
     20 C           7.7630   31.2996    7.7134 C.ar    1  UNL1        0.0038
     21 C           2.8835   30.9862    3.4511 C.3     1  UNL1        0.0063
     22 C           2.9309   32.2591    4.3009 C.3     1  UNL1        0.0404
     23 C           1.5240   32.8352    4.4872 C.3     1  UNL1        0.0063
     24 C           5.7462   32.9208    4.8671 C.2     1  UNL1        0.0016
     25 C           6.5159   32.1988    4.0362 C.2     1  UNL1        0.0168
     26 C           7.2520   32.7483    2.8365 C.3     1  UNL1        0.1933
     27 C           6.7299   34.1292    2.4798 C.3     1  UNL1        0.0781
     28 C           7.4879   34.6296    1.2668 C.3     1  UNL1        0.1256
     29 O           8.8549   34.8262    1.6214 O.3     1  UNL1       -0.3837
     30 C           7.3762   33.6521    0.1156 C.3     1  UNL1        0.1388
     31 C           7.5380   32.2024    0.4978 C.2     1  UNL1        0.3197
     32 O           7.8617   31.3626   -0.3283 O.2     1  UNL1       -0.2500
     33 O           7.1185   31.8392    1.7314 O.3     1  UNL1       -0.4475
     34 H           9.2976   35.2861    0.8846 H       1  UNL1        0.2104
@<TRIPOS>BOND
     1    21    22    1
     2    22    23    1
     3    22     1    1
     4     1     2   ar
     5     1     6   ar
     6     2     3   ar
     7     3     7    1
     8     3     4   ar
     9     7     8   ar
    10     7    13   ar
    11     8     9   ar
    12     9    10   ar
    13    10    11    1
    14    10    12   ar
    15    12    13   ar
    16     4     5   ar
    17     5    14    1
    18     5     6   ar
    19    14    15   ar
    20    14    20   ar
    21    15    16   ar
    22    16    17   ar
    23    17    18    1
    24    17    19   ar
    25    19    20   ar
    26     6    24    1
    27    24    25    2
    28    26    27    1
    29    26    33    1
    30    26    25    1
    31    27    28    1
    32    28    30    1
    33    28    29    1
    34    29    34    1
    35    30    31    1
    36    31    32    2
    37    31    33    1



#	Name:			CHEMBL2368188
#	Creating user name:	trannguyen
#	Creation time:		Fri Mar 18 16:33:25 2022


#	Modifying user name:	trannguyen
#	Modification time:	Fri Mar 18 16:33:25 2022

@<TRIPOS>MOLECULE
CHEMBL2368188
 33 36 0 0 0
SMALL
GASTEIGER

@<TRIPOS>ATOM
      1 C           3.4567   31.9019    6.1452 C.ar    1  UNL1        0.0617
      2 N           2.6097   31.2343    6.9579 N.ar    1  UNL1       -0.2309
      3 C           3.0400   30.9234    8.1964 C.ar    1  UNL1        0.1618
      4 N           4.2511   31.2498    8.6899 N.ar    1  UNL1       -0.2266
      5 C           5.1067   31.9210    7.8822 C.ar    1  UNL1        0.0840
      6 C           4.7486   32.2484    6.5625 C.ar    1  UNL1        0.0311
      7 C           6.4087   32.2749    8.5422 C.ar    1  UNL1        0.0179
      8 C           6.6103   33.4990    9.2151 C.ar    1  UNL1        0.0038
      9 C           7.8250   33.8347    9.8201 C.ar    1  UNL1        0.0297
     10 C           8.8625   32.9214    9.8130 C.ar    1  UNL1        0.1401
     11 F          10.0176   33.2323   10.4150 F       1  UNL1       -0.2042
     12 C           8.7110   31.6908    9.1915 C.ar    1  UNL1        0.0297
     13 C           7.4997   31.3760    8.5530 C.ar    1  UNL1        0.0038
     14 C           2.1235   30.1580    9.0663 C.ar    1  UNL1        0.0358
     15 C           2.6048   29.3656   10.1264 C.ar    1  UNL1        0.0030
     16 C           1.7386   28.6372   10.9477 C.ar    1  UNL1        0.0001
     17 C           0.3658   28.6814   10.7248 C.ar    1  UNL1        0.0000
     18 C          -0.1409   29.4528    9.6836 C.ar    1  UNL1        0.0001
     19 C           0.7286   30.1826    8.8669 C.ar    1  UNL1        0.0030
     20 C           3.0705   31.0925    3.7733 C.3     1  UNL1        0.0063
     21 C           2.9169   32.2540    4.7583 C.3     1  UNL1        0.0404
     22 C           1.4480   32.6922    4.7916 C.3     1  UNL1        0.0063
     23 C           5.6562   32.9305    5.6400 C.2     1  UNL1        0.0016
     24 C           6.5356   32.2982    4.8456 C.2     1  UNL1        0.0168
     25 C           7.4795   33.0058    3.8992 C.3     1  UNL1        0.1933
     26 C           6.8701   34.2994    3.3784 C.3     1  UNL1        0.0781
     27 C           7.7897   34.8862    2.3254 C.3     1  UNL1        0.1256
     28 O           9.0328   35.2393    2.9261 O.3     1  UNL1       -0.3837
     29 C           8.0093   33.9010    1.1985 C.3     1  UNL1        0.1388
     30 C           8.3143   32.5004    1.6467 C.2     1  UNL1        0.3197
     31 O           8.8566   31.7053    0.8965 O.2     1  UNL1       -0.2500
     32 O           7.8210   32.0974    2.8362 O.3     1  UNL1       -0.4475
     33 H           9.5662   35.7177    2.2650 H       1  UNL1        0.2104
@<TRIPOS>BOND
     1    20    21    1
     2    21    22    1
     3    21     1    1
     4     1     2   ar
     5     1     6   ar
     6     2     3   ar
     7     3    14    1
     8     3     4   ar
     9    14    15   ar
    10    14    19   ar
    11    15    16   ar
    12    16    17   ar
    13    17    18   ar
    14    18    19   ar
    15     4     5   ar
    16     5     7    1
    17     5     6   ar
    18     7     8   ar
    19     7    13   ar
    20     8     9   ar
    21     9    10   ar
    22    10    11    1
    23    10    12   ar
    24    12    13   ar
    25     6    23    1
    26    23    24    2
    27    25    26    1
    28    25    32    1
    29    25    24    1
    30    26    27    1
    31    27    29    1
    32    27    28    1
    33    28    33    1
    34    29    30    1
    35    30    31    2
    36    30    32    1



#	Name:			CHEMBL2368189
#	Creating user name:	trannguyen
#	Creation time:		Fri Mar 18 16:33:25 2022


#	Modifying user name:	trannguyen
#	Modification time:	Fri Mar 18 16:33:25 2022

@<TRIPOS>MOLECULE
CHEMBL2368189
 33 36 0 0 0
SMALL
GASTEIGER

@<TRIPOS>ATOM
      1 C           3.2356   32.3647    6.0967 C.ar    1  UNL1        0.0613
      2 N           2.3478   32.0815    7.0766 N.ar    1  UNL1       -0.2350
      3 C           2.8053   31.9910    8.3347 C.ar    1  UNL1        0.1383
      4 N           4.1031   32.0964    8.6691 N.ar    1  UNL1       -0.2307
      5 C           5.0121   32.3539    7.6930 C.ar    1  UNL1        0.0837
      6 C           4.6038   32.5281    6.3600 C.ar    1  UNL1        0.0311
      7 C           6.4258   32.4236    8.2015 C.ar    1  UNL1        0.0179
      8 C           7.1951   31.2500    8.3919 C.ar    1  UNL1        0.0038
      9 C           8.5230   31.2908    8.8480 C.ar    1  UNL1        0.0297
     10 C           9.1095   32.5120    9.1365 C.ar    1  UNL1        0.1401
     11 F          10.3706   32.5601    9.5855 F       1  UNL1       -0.2042
     12 C           8.4017   33.6875    8.9539 C.ar    1  UNL1        0.0297
     13 C           7.0856   33.6397    8.4727 C.ar    1  UNL1        0.0038
     14 C           1.7647   31.7675    9.4199 C.3     1  UNL1        0.0586
     15 C           0.4815   31.1227    8.8759 C.3     1  UNL1        0.0075
     16 C           0.6133   29.6211    8.6330 C.3     1  UNL1        0.0004
     17 C           1.1305   28.8837    9.8643 C.3     1  UNL1        0.0000
     18 C           2.4148   29.4908   10.4151 C.3     1  UNL1        0.0004
     19 C           2.2991   30.9985   10.6396 C.3     1  UNL1        0.0075
     20 C           2.8049   31.1483    3.9207 C.3     1  UNL1        0.0063
     21 C           2.6572   32.4666    4.6847 C.3     1  UNL1        0.0404
     22 C           1.1848   32.8944    4.6905 C.3     1  UNL1        0.0063
     23 C           5.5028   32.9313    5.2725 C.2     1  UNL1        0.0016
     24 C           6.2988   32.0391    4.6629 C.2     1  UNL1        0.0168
     25 C           7.2724   32.3882    3.5733 C.3     1  UNL1        0.1933
     26 C           7.1258   33.8550    3.2103 C.3     1  UNL1        0.0781
     27 C           8.0553   34.1539    2.0548 C.3     1  UNL1        0.1256
     28 O           9.4042   33.9898    2.4855 O.3     1  UNL1       -0.3837
     29 C           7.7568   33.2464    0.8804 C.3     1  UNL1        0.1388
     30 C           7.4970   31.8019    1.2351 C.2     1  UNL1        0.3197
     31 O           7.5980   30.9224    0.3909 O.2     1  UNL1       -0.2500
     32 O           6.9740   31.5379    2.4555 O.3     1  UNL1       -0.4475
     33 H           9.9884   34.3596    1.7985 H       1  UNL1        0.2104
@<TRIPOS>BOND
     1    20    21    1
     2    21    22    1
     3    21     1    1
     4     1     2   ar
     5     1     6   ar
     6     2     3   ar
     7     3    14    1
     8     3     4   ar
     9    14    15    1
    10    14    19    1
    11    15    16    1
    12    16    17    1
    13    17    18    1
    14    18    19    1
    15     4     5   ar
    16     5     7    1
    17     5     6   ar
    18     7     8   ar
    19     7    13   ar
    20     8     9   ar
    21     9    10   ar
    22    10    11    1
    23    10    12   ar
    24    12    13   ar
    25     6    23    1
    26    23    24    2
    27    25    26    1
    28    25    32    1
    29    25    24    1
    30    26    27    1
    31    27    29    1
    32    27    28    1
    33    28    33    1
    34    29    30    1
    35    30    31    2
    36    30    32    1



#	Name:			CHEMBL2368190
#	Creating user name:	trannguyen
#	Creation time:		Fri Mar 18 16:33:25 2022


#	Modifying user name:	trannguyen
#	Modification time:	Fri Mar 18 16:33:25 2022

@<TRIPOS>MOLECULE
CHEMBL2368190
 30 32 0 0 0
SMALL
GASTEIGER

@<TRIPOS>ATOM
      1 C           3.0280   31.3077    8.3838 C.ar    1  UNL1        0.1383
      2 N           4.3003   31.5512    8.7429 N.ar    1  UNL1       -0.2307
      3 C           5.1429   32.0649    7.8095 C.ar    1  UNL1        0.0837
      4 C           4.7118   32.3162    6.4979 C.ar    1  UNL1        0.0311
      5 C           3.3696   32.0337    6.2211 C.ar    1  UNL1        0.0613
      6 N           2.5286   31.5455    7.1621 N.ar    1  UNL1       -0.2350
      7 C           6.5314   32.2800    8.3224 C.ar    1  UNL1        0.0179
      8 C           6.9208   33.5373    8.8385 C.ar    1  UNL1        0.0038
      9 C           8.2116   33.7656    9.3340 C.ar    1  UNL1        0.0297
     10 C           9.1359   32.7327    9.3355 C.ar    1  UNL1        0.1401
     11 F          10.3670   32.9396    9.8205 F       1  UNL1       -0.2042
     12 C           8.8027   31.4892    8.8254 C.ar    1  UNL1        0.0297
     13 C           7.5229   31.2782    8.3000 C.ar    1  UNL1        0.0038
     14 C           0.8047   30.2068    8.7318 C.3     1  UNL1        0.0080
     15 C           2.0967   30.6808    9.3979 C.3     1  UNL1        0.0586
     16 C           2.7832   29.5388   10.1429 C.3     1  UNL1        0.0080
     17 C           2.7650   32.1998    4.8310 C.3     1  UNL1        0.0404
     18 C           2.9600   30.9194    4.0140 C.3     1  UNL1        0.0063
     19 C           1.2855   32.5809    4.8979 C.3     1  UNL1        0.0063
     20 C           5.5974   32.7918    5.4305 C.2     1  UNL1        0.0016
     21 C           6.3350   31.9511    4.6886 C.2     1  UNL1        0.0168
     22 C           7.2385   32.3500    3.5495 C.3     1  UNL1        0.1933
     23 C           7.0408   33.8232    3.2326 C.3     1  UNL1        0.0781
     24 C           7.9325   34.1824    2.0633 C.3     1  UNL1        0.1256
     25 O           9.2947   34.0255    2.4538 O.3     1  UNL1       -0.3837
     26 C           7.6153   33.3102    0.8688 C.3     1  UNL1        0.1388
     27 C           7.4789   31.8442    1.1912 C.2     1  UNL1        0.3197
     28 O           7.6516   30.9914    0.3326 O.2     1  UNL1       -0.2500
     29 O           6.9750   31.5214    2.4043 O.3     1  UNL1       -0.4475
     30 H           9.8627   34.1955    1.6806 H       1  UNL1        0.2104
@<TRIPOS>BOND
     1    14    15    1
     2    15    16    1
     3    15     1    1
     4     1     2   ar
     5     1     6   ar
     6     2     3   ar
     7     3     7    1
     8     3     4   ar
     9     7     8   ar
    10     7    13   ar
    11     8     9   ar
    12     9    10   ar
    13    10    11    1
    14    10    12   ar
    15    12    13   ar
    16     4    20    1
    17     4     5   ar
    18    20    21    2
    19    22    23    1
    20    22    29    1
    21    22    21    1
    22    23    24    1
    23    24    26    1
    24    24    25    1
    25    25    30    1
    26    26    27    1
    27    27    28    2
    28    27    29    1
    29     5    17    1
    30     5     6   ar
    31    17    18    1
    32    17    19    1



#	Name:			CHEMBL2368191
#	Creating user name:	trannguyen
#	Creation time:		Fri Mar 18 16:33:25 2022


#	Modifying user name:	trannguyen
#	Modification time:	Fri Mar 18 16:33:25 2022

@<TRIPOS>MOLECULE
CHEMBL2368191
 33 36 0 0 0
SMALL
GASTEIGER

@<TRIPOS>ATOM
      1 C           4.0100   32.6271    5.6937 C.ar    1  UNL1        0.0582
      2 N           3.1750   32.5103    6.7599 N.ar    1  UNL1       -0.2540
      3 C           3.6877   32.2540    7.9726 C.ar    1  UNL1        0.0582
      4 C           5.0589   32.1532    8.1710 C.ar    1  UNL1        0.0147
      5 C           5.9605   32.2093    7.0870 C.ar    1  UNL1        0.0023
      6 C           5.4158   32.4425    5.7977 C.ar    1  UNL1        0.0134
      7 C           7.4047   32.0136    7.4134 C.ar    1  UNL1        0.0002
      8 C           8.0046   30.7428    7.4709 C.ar    1  UNL1        0.0023
      9 C           9.3949   30.6023    7.6006 C.ar    1  UNL1        0.0296
     10 C          10.2027   31.7304    7.6655 C.ar    1  UNL1        0.1401
     11 F          11.5337   31.5943    7.7338 F       1  UNL1       -0.2042
     12 C           9.6465   32.9985    7.6400 C.ar    1  UNL1        0.0296
     13 C           8.2590   33.1352    7.5333 C.ar    1  UNL1        0.0023
     14 C           2.7245   32.0761    9.1334 C.3     1  UNL1        0.0403
     15 C           1.2890   31.8381    8.6504 C.3     1  UNL1        0.0059
     16 C           1.0423   30.4065    8.1824 C.3     1  UNL1        0.0004
     17 C           1.3803   29.3993    9.2737 C.3     1  UNL1        0.0000
     18 C           2.8055   29.5567    9.7902 C.3     1  UNL1        0.0004
     19 C           3.1673   31.0009   10.1490 C.3     1  UNL1        0.0059
     20 C           2.7023   31.6045    3.8054 C.3     1  UNL1        0.0063
     21 C           3.2758   32.8989    4.3866 C.3     1  UNL1        0.0403
     22 C           2.1573   33.9515    4.5280 C.3     1  UNL1        0.0063
     23 C           6.2783   32.3590    4.6005 C.2     1  UNL1        0.0001
     24 C           6.9465   33.3893    4.0520 C.2     1  UNL1        0.0168
     25 C           7.7453   33.3155    2.7692 C.3     1  UNL1        0.1933
     26 C           7.6585   34.6427    2.0246 C.3     1  UNL1        0.0781
     27 C           8.4036   34.5193    0.7108 C.3     1  UNL1        0.1256
     28 O           9.7899   34.3187    0.9730 O.3     1  UNL1       -0.3837
     29 C           7.8426   33.3788   -0.1090 C.3     1  UNL1        0.1388
     30 C           7.6158   32.1065    0.6688 C.2     1  UNL1        0.3197
     31 O           7.5918   31.0239    0.1065 O.2     1  UNL1       -0.2500
     32 O           7.2539   32.2287    1.9672 O.3     1  UNL1       -0.4475
     33 H          10.2566   34.2402    0.1208 H       1  UNL1        0.2104
@<TRIPOS>BOND
     1    20    21    1
     2    21    22    1
     3    21     1    1
     4     1     2   ar
     5     1     6   ar
     6     2     3   ar
     7     3    14    1
     8     3     4   ar
     9    14    15    1
    10    14    19    1
    11    15    16    1
    12    16    17    1
    13    17    18    1
    14    18    19    1
    15     4     5   ar
    16     5     7    1
    17     5     6   ar
    18     7     8   ar
    19     7    13   ar
    20     8     9   ar
    21     9    10   ar
    22    10    11    1
    23    10    12   ar
    24    12    13   ar
    25     6    23    1
    26    23    24    2
    27    25    26    1
    28    25    32    1
    29    25    24    1
    30    26    27    1
    31    27    29    1
    32    27    28    1
    33    28    33    1
    34    29    30    1
    35    30    31    2
    36    30    32    1



#	Name:			CHEMBL2368194
#	Creating user name:	trannguyen
#	Creation time:		Fri Mar 18 16:33:25 2022


#	Modifying user name:	trannguyen
#	Modification time:	Fri Mar 18 16:33:25 2022

@<TRIPOS>MOLECULE
CHEMBL2368194
 34 37 0 0 0
SMALL
GASTEIGER

@<TRIPOS>ATOM
      1 C           5.2243   31.9288    7.8766 C.ar    1  UNL1        0.0026
      2 C           4.3268   31.2794    8.7376 C.ar    1  UNL1        0.0191
      3 C           3.0532   30.9442    8.3026 C.ar    1  UNL1        0.0809
      4 N           2.6396   31.2365    7.0465 N.ar    1  UNL1       -0.2497
      5 C           3.4776   31.8981    6.2022 C.ar    1  UNL1        0.0585
      6 C           4.7904   32.2551    6.5719 C.ar    1  UNL1        0.0134
      7 C           9.2590   32.5199    9.2324 C.ar    1  UNL1        0.1387
      8 C           8.3171   33.5368    9.4036 C.ar    1  UNL1        0.0369
      9 C           6.9924   33.3550    8.9838 C.ar    1  UNL1        0.0031
     10 C           6.5956   32.1594    8.3680 C.ar    1  UNL1        0.0003
     11 C           7.5480   31.1389    8.2315 C.ar    1  UNL1        0.0031
     12 C           8.8606   31.3141    8.6602 C.ar    1  UNL1        0.0369
     13 C          10.7340   34.1226   10.1437 C.3     1  UNL1        0.2525
     14 O          10.5328   32.7993    9.6507 O.3     1  UNL1       -0.4714
     15 C           2.1000   30.1993    9.1487 C.ar    1  UNL1        0.0176
     16 C           0.7258   30.2130    8.8506 C.ar    1  UNL1        0.0015
     17 C          -0.1910   29.4749    9.6026 C.ar    1  UNL1        0.0000
     18 C           0.2475   28.7094   10.6784 C.ar    1  UNL1        0.0000
     19 C           1.5988   28.6925   11.0102 C.ar    1  UNL1        0.0000
     20 C           2.5138   29.4336   10.2560 C.ar    1  UNL1        0.0015
     21 C           2.9174   32.1832    4.8137 C.3     1  UNL1        0.0403
     22 C           3.0786   30.9613    3.9056 C.3     1  UNL1        0.0063
     23 C           1.4469   32.6306    4.8292 C.3     1  UNL1        0.0063
     24 C           5.6988   32.9505    5.6424 C.2     1  UNL1        0.0001
     25 C           6.4777   32.3256    4.7420 C.2     1  UNL1        0.0168
     26 C           7.4640   33.0209    3.8315 C.3     1  UNL1        0.1933
     27 C           6.8819   34.3358    3.3359 C.3     1  UNL1        0.0781
     28 C           7.7866   34.9278    2.2759 C.3     1  UNL1        0.1256
     29 O           9.0155   35.3500    2.8628 O.3     1  UNL1       -0.3837
     30 C           7.9897   33.9476    1.1411 C.3     1  UNL1        0.1388
     31 C           8.3324   32.5522    1.5878 C.2     1  UNL1        0.3197
     32 O           8.9498   31.7922    0.8586 O.2     1  UNL1       -0.2500
     33 O           7.8157   32.1242    2.7598 O.3     1  UNL1       -0.4475
     34 H           9.7280   34.7196    2.6586 H       1  UNL1        0.2104
@<TRIPOS>BOND
     1    13    14    1
     2    14     7    1
     3     7     8   ar
     4     7    12   ar
     5     8     9   ar
     6     9    10   ar
     7    10     1    1
     8    10    11   ar
     9     1     2   ar
    10     1     6   ar
    11     2     3   ar
    12     3    15    1
    13     3     4   ar
    14    15    16   ar
    15    15    20   ar
    16    16    17   ar
    17    17    18   ar
    18    18    19   ar
    19    19    20   ar
    20     4     5   ar
    21     5    21    1
    22     5     6   ar
    23    21    22    1
    24    21    23    1
    25     6    24    1
    26    24    25    2
    27    26    27    1
    28    26    33    1
    29    26    25    1
    30    27    28    1
    31    28    30    1
    32    28    29    1
    33    29    34    1
    34    30    31    1
    35    31    32    2
    36    31    33    1
    37    11    12   ar



#	Name:			CHEMBL2368197
#	Creating user name:	trannguyen
#	Creation time:		Fri Mar 18 16:33:25 2022


#	Modifying user name:	trannguyen
#	Modification time:	Fri Mar 18 16:33:25 2022

@<TRIPOS>MOLECULE
CHEMBL2368197
 31 33 0 0 0
SMALL
GASTEIGER

@<TRIPOS>ATOM
      1 C           3.4023   32.0603    6.0118 C.ar    1  UNL1        0.0582
      2 N           2.5309   31.7575    7.0188 N.ar    1  UNL1       -0.2540
      3 C           2.9967   31.5905    8.2762 C.ar    1  UNL1        0.0579
      4 C           4.3608   31.7204    8.5449 C.ar    1  UNL1        0.0147
      5 C           5.3053   32.0661    7.5486 C.ar    1  UNL1        0.0023
      6 C           4.7904   32.2531    6.2334 C.ar    1  UNL1        0.0134
      7 C           6.7475   32.2355    7.9738 C.ar    1  UNL1        0.0002
      8 C           7.2966   33.4657    8.3843 C.ar    1  UNL1        0.0023
      9 C           8.6317   33.6054    8.7913 C.ar    1  UNL1        0.0296
     10 C           9.4815   32.5178    8.7272 C.ar    1  UNL1        0.1401
     11 F          10.7659   32.6517    9.0826 F       1  UNL1       -0.2042
     12 C           9.0118   31.2941    8.2817 C.ar    1  UNL1        0.0296
     13 C           7.6597   31.1534    7.9283 C.ar    1  UNL1        0.0023
     14 C           1.9693   31.3093    9.3915 C.3     1  UNL1        0.0355
     15 C           0.6220   30.8875    8.7711 C.3     1  UNL1        0.0059
     16 C           2.4472   30.1594   10.3075 C.3     1  UNL1        0.0059
     17 C           1.7188   32.5376   10.2950 C.3     1  UNL1        0.0059
     18 C           2.8505   30.9384    3.7991 C.3     1  UNL1        0.0063
     19 C           2.7564   32.2216    4.6344 C.3     1  UNL1        0.0403
     20 C           1.2916   32.6507    4.7531 C.3     1  UNL1        0.0063
     21 C           5.6420   32.7485    5.1329 C.2     1  UNL1        0.0001
     22 C           6.3345   31.9525    4.3002 C.2     1  UNL1        0.0168
     23 C           7.3152   32.4588    3.2743 C.3     1  UNL1        0.1933
     24 C           7.1135   33.9280    2.9865 C.3     1  UNL1        0.0781
     25 C           7.9743   34.3300    1.8076 C.3     1  UNL1        0.1256
     26 O           9.3507   34.1783    2.1423 O.3     1  UNL1       -0.3837
     27 C           7.6283   33.4977    0.5994 C.3     1  UNL1        0.1388
     28 C           7.5084   31.9981    0.8547 C.2     1  UNL1        0.3197
     29 O           7.6247   31.1880   -0.0404 O.2     1  UNL1       -0.2500
     30 O           7.1155   31.6350    2.0876 O.3     1  UNL1       -0.4475
     31 H           9.8844   34.5487    1.4166 H       1  UNL1        0.2104
@<TRIPOS>BOND
     1    18    19    1
     2    19    20    1
     3    19     1    1
     4     1     2   ar
     5     1     6   ar
     6     2     3   ar
     7     3    14    1
     8     3     4   ar
     9    14    15    1
    10    14    16    1
    11    14    17    1
    12     4     5   ar
    13     5     7    1
    14     5     6   ar
    15     7     8   ar
    16     7    13   ar
    17     8     9   ar
    18     9    10   ar
    19    10    11    1
    20    10    12   ar
    21    12    13   ar
    22     6    21    1
    23    21    22    2
    24    23    24    1
    25    23    30    1
    26    23    22    1
    27    24    25    1
    28    25    27    1
    29    25    26    1
    30    26    31    1
    31    27    28    1
    32    28    29    2
    33    28    30    1



#	Name:			CHEMBL2368198
#	Creating user name:	trannguyen
#	Creation time:		Fri Mar 18 16:33:25 2022


#	Modifying user name:	trannguyen
#	Modification time:	Fri Mar 18 16:33:25 2022

@<TRIPOS>MOLECULE
CHEMBL2368198
 28 30 0 0 0
SMALL
GASTEIGER

@<TRIPOS>ATOM
      1 C           9.7016   34.0148    5.6303 C.3     1  UNL1        0.0521
      2 C           8.3840   33.6432    6.2418 C.ar    1  UNL1        0.0590
      3 C           7.2789   33.3583    5.4442 C.ar    1  UNL1        0.0147
      4 C           6.0346   33.0175    6.0148 C.ar    1  UNL1        0.0023
      5 C           5.9840   33.0195    7.4380 C.ar    1  UNL1        0.0134
      6 C           7.1453   33.3443    8.1824 C.ar    1  UNL1        0.0582
      7 N           8.3253   33.6479    7.5866 N.ar    1  UNL1       -0.2540
      8 C           4.8815   32.6931    5.0963 C.ar    1  UNL1        0.0002
      9 C           4.0104   33.6717    4.5748 C.ar    1  UNL1        0.0023
     10 C           2.9463   33.3521    3.7182 C.ar    1  UNL1        0.0296
     11 C           2.7450   32.0381    3.3350 C.ar    1  UNL1        0.1401
     12 F           1.7387   31.7338    2.5051 F       1  UNL1       -0.2042
     13 C           3.5822   31.0394    3.8010 C.ar    1  UNL1        0.0296
     14 C           4.6311   31.3645    4.6752 C.ar    1  UNL1        0.0023
     15 C           7.1565   33.4137    9.7094 C.3     1  UNL1        0.0403
     16 C           7.9161   32.2383   10.3311 C.3     1  UNL1        0.0063
     17 C           7.7509   34.7409   10.1884 C.3     1  UNL1        0.0063
     18 C           4.7609   32.7086    8.1825 C.2     1  UNL1        0.0001
     19 C           4.5045   31.4995    8.7059 C.2     1  UNL1        0.0168
     20 C           3.2687   31.1856    9.5093 C.3     1  UNL1        0.1933
     21 C           3.1577   29.6840    9.7321 C.3     1  UNL1        0.0781
     22 C           1.8021   29.3715   10.3276 C.3     1  UNL1        0.1256
     23 O           1.6866   29.9981   11.6006 O.3     1  UNL1       -0.3837
     24 C           0.7153   29.8443    9.3894 C.3     1  UNL1        0.1388
     25 C           0.8788   31.2745    8.9584 C.2     1  UNL1        0.3197
     26 O          -0.0872   31.9373    8.6015 O.2     1  UNL1       -0.2500
     27 O           2.1339   31.7466    8.8173 O.3     1  UNL1       -0.4475
     28 H           0.7797   29.8674   11.9318 H       1  UNL1        0.2104
@<TRIPOS>BOND
     1     1     2    1
     2     2     3   ar
     3     2     7   ar
     4     3     4   ar
     5     4     8    1
     6     4     5   ar
     7     8     9   ar
     8     8    14   ar
     9     9    10   ar
    10    10    11   ar
    11    11    12    1
    12    11    13   ar
    13    13    14   ar
    14     5    18    1
    15     5     6   ar
    16    18    19    2
    17    20    21    1
    18    20    27    1
    19    20    19    1
    20    21    22    1
    21    22    24    1
    22    22    23    1
    23    23    28    1
    24    24    25    1
    25    25    26    2
    26    25    27    1
    27     6    15    1
    28     6     7   ar
    29    15    16    1
    30    15    17    1



#	Name:			CHEMBL2368199
#	Creating user name:	trannguyen
#	Creation time:		Fri Mar 18 16:33:25 2022


#	Modifying user name:	trannguyen
#	Modification time:	Fri Mar 18 16:33:25 2022

@<TRIPOS>MOLECULE
CHEMBL2368199
 33 36 0 0 0
SMALL
GASTEIGER

@<TRIPOS>ATOM
      1 C           3.5372   31.8906    6.3159 C.ar    1  UNL1        0.0585
      2 N           2.6790   31.2010    7.1055 N.ar    1  UNL1       -0.2497
      3 C           3.0414   30.8895    8.3647 C.ar    1  UNL1        0.0809
      4 C           4.2877   31.2586    8.8670 C.ar    1  UNL1        0.0191
      5 C           5.2443   31.9268    8.0691 C.ar    1  UNL1        0.0026
      6 C           4.8354   32.2539    6.7452 C.ar    1  UNL1        0.0134
      7 C           6.6007   32.2185    8.6612 C.ar    1  UNL1        0.0002
      8 C           6.8555   33.4228    9.3625 C.ar    1  UNL1        0.0023
      9 C           8.1051   33.7068    9.9341 C.ar    1  UNL1        0.0296
     10 C           9.1232   32.7731    9.8503 C.ar    1  UNL1        0.1401
     11 F          10.3060   33.0209   10.4270 F       1  UNL1       -0.2042
     12 C           8.9262   31.5855    9.1695 C.ar    1  UNL1        0.0296
     13 C           7.6918   31.3332    8.5562 C.ar    1  UNL1        0.0023
     14 C           2.0287   30.1473    9.1464 C.ar    1  UNL1        0.0176
     15 C           2.3748   29.3017   10.2162 C.ar    1  UNL1        0.0015
     16 C           1.3998   28.6052   10.9391 C.ar    1  UNL1        0.0000
     17 C           0.0551   28.7335   10.6037 C.ar    1  UNL1        0.0000
     18 C          -0.3158   29.5525    9.5426 C.ar    1  UNL1        0.0000
     19 C           0.6608   30.2471    8.8231 C.ar    1  UNL1        0.0015
     20 C           3.1849   31.0039    3.9854 C.3     1  UNL1        0.0063
     21 C           3.0045   32.2041    4.9190 C.3     1  UNL1        0.0403
     22 C           1.5223   32.6099    4.9476 C.3     1  UNL1        0.0063
     23 C           5.7106   32.9453    5.7871 C.2     1  UNL1        0.0001
     24 C           6.5517   32.2896    4.9718 C.2     1  UNL1        0.0168
     25 C           7.4206   32.9414    3.9251 C.3     1  UNL1        0.1933
     26 C           6.7182   34.1452    3.3159 C.3     1  UNL1        0.0781
     27 C           7.5916   34.7152    2.2171 C.3     1  UNL1        0.1256
     28 O           8.7973   35.2201    2.7862 O.3     1  UNL1       -0.3837
     29 C           7.8959   33.6579    1.1802 C.3     1  UNL1        0.1388
     30 C           8.3199   32.3320    1.7557 C.2     1  UNL1        0.3197
     31 O           8.9975   31.5489    1.1046 O.2     1  UNL1       -0.2500
     32 O           7.7679   31.9615    2.9323 O.3     1  UNL1       -0.4475
     33 H           9.3227   35.6323    2.0761 H       1  UNL1        0.2104
@<TRIPOS>BOND
     1    20    21    1
     2    21    22    1
     3    21     1    1
     4     1     2   ar
     5     1     6   ar
     6     2     3   ar
     7     3    14    1
     8     3     4   ar
     9    14    15   ar
    10    14    19   ar
    11    15    16   ar
    12    16    17   ar
    13    17    18   ar
    14    18    19   ar
    15     4     5   ar
    16     5     7    1
    17     5     6   ar
    18     7     8   ar
    19     7    13   ar
    20     8     9   ar
    21     9    10   ar
    22    10    11    1
    23    10    12   ar
    24    12    13   ar
    25     6    23    1
    26    23    24    2
    27    25    26    1
    28    25    32    1
    29    25    24    1
    30    26    27    1
    31    27    29    1
    32    27    28    1
    33    28    33    1
    34    29    30    1
    35    30    31    2
    36    30    32    1



#	Name:			CHEMBL2368200
#	Creating user name:	trannguyen
#	Creation time:		Fri Mar 18 16:33:25 2022


#	Modifying user name:	trannguyen
#	Modification time:	Fri Mar 18 16:33:25 2022

@<TRIPOS>MOLECULE
CHEMBL2368200
 33 36 0 0 0
SMALL
GASTEIGER

@<TRIPOS>ATOM
      1 C           3.2635   31.9623    5.9232 C.ar    1  UNL1       -0.0196
      2 C           2.4730   31.2086    6.8068 C.ar    1  UNL1        0.0149
      3 C           2.9369   30.8727    8.0765 C.ar    1  UNL1        0.0809
      4 N           4.1708   31.2548    8.4940 N.ar    1  UNL1       -0.2454
      5 C           4.9773   31.9923    7.6653 C.ar    1  UNL1        0.0809
      6 C           4.5541   32.3578    6.3593 C.ar    1  UNL1        0.0135
      7 C           6.2922   32.3598    8.2982 C.ar    1  UNL1        0.0178
      8 C           7.3913   31.4678    8.2562 C.ar    1  UNL1        0.0038
      9 C           8.6363   31.7903    8.8212 C.ar    1  UNL1        0.0297
     10 C           8.8134   33.0204    9.4343 C.ar    1  UNL1        0.1401
     11 F          10.0031   33.3431    9.9584 F       1  UNL1       -0.2042
     12 C           7.7676   33.9229    9.5040 C.ar    1  UNL1        0.0297
     13 C           6.5286   33.5937    8.9389 C.ar    1  UNL1        0.0038
     14 C           2.1113   30.1011    9.0426 C.ar    1  UNL1        0.0176
     15 C           0.7019   30.0792    8.9713 C.ar    1  UNL1        0.0015
     16 C          -0.0732   29.3426    9.8761 C.ar    1  UNL1        0.0000
     17 C           0.5424   28.6094   10.8836 C.ar    1  UNL1        0.0000
     18 C           1.9302   28.6170   10.9872 C.ar    1  UNL1        0.0000
     19 C           2.7026   29.3554   10.0793 C.ar    1  UNL1        0.0015
     20 C           2.7351   31.2103    3.5341 C.3     1  UNL1        0.0047
     21 C           2.6803   32.3501    4.5594 C.3     1  UNL1        0.0225
     22 C           1.2415   32.8678    4.6878 C.3     1  UNL1        0.0047
     23 C           5.3942   33.1350    5.4315 C.2     1  UNL1        0.0002
     24 C           6.1889   32.5671    4.5108 C.2     1  UNL1        0.0168
     25 C           7.1127   33.2985    3.5663 C.3     1  UNL1        0.1933
     26 C           7.5314   34.6349    4.1591 C.3     1  UNL1        0.0781
     27 C           8.5494   35.2573    3.2253 C.3     1  UNL1        0.1256
     28 O           9.7334   34.4611    3.2441 O.3     1  UNL1       -0.3837
     29 C           8.0121   35.3702    1.8121 C.3     1  UNL1        0.1388
     30 C           7.1016   34.2522    1.3546 C.2     1  UNL1        0.3197
     31 O           6.8217   34.1256    0.1697 O.2     1  UNL1       -0.2500
     32 O           6.4730   33.5106    2.2990 O.3     1  UNL1       -0.4475
     33 H          10.4321   34.9402    2.7625 H       1  UNL1        0.2104
@<TRIPOS>BOND
     1    20    21    1
     2    21    22    1
     3    21     1    1
     4     1     2   ar
     5     1     6   ar
     6     2     3   ar
     7     3    14    1
     8     3     4   ar
     9    14    15   ar
    10    14    19   ar
    11    15    16   ar
    12    16    17   ar
    13    17    18   ar
    14    18    19   ar
    15     4     5   ar
    16     5     7    1
    17     5     6   ar
    18     7     8   ar
    19     7    13   ar
    20     8     9   ar
    21     9    10   ar
    22    10    11    1
    23    10    12   ar
    24    12    13   ar
    25     6    23    1
    26    23    24    2
    27    25    26    1
    28    25    32    1
    29    25    24    1
    30    26    27    1
    31    27    29    1
    32    27    28    1
    33    28    33    1
    34    29    30    1
    35    30    31    2
    36    30    32    1



#	Name:			CHEMBL2368202
#	Creating user name:	trannguyen
#	Creation time:		Fri Mar 18 16:33:25 2022


#	Modifying user name:	trannguyen
#	Modification time:	Fri Mar 18 16:33:25 2022

@<TRIPOS>MOLECULE
CHEMBL2368202
 34 37 0 0 0
SMALL
GASTEIGER

@<TRIPOS>ATOM
      1 C           4.2453   32.6443    4.6563 C.ar    1  UNL1        0.0585
      2 N           4.8959   32.7926    3.4745 N.ar    1  UNL1       -0.2497
      3 C           6.2435   32.8240    3.4616 C.ar    1  UNL1        0.0809
      4 C           6.9754   32.7669    4.6458 C.ar    1  UNL1        0.0191
      5 C           6.3465   32.6185    5.9032 C.ar    1  UNL1        0.0026
      6 C           4.9268   32.5463    5.8911 C.ar    1  UNL1        0.0134
      7 C           6.8652   32.9243    2.1211 C.ar    1  UNL1        0.0178
      8 C           6.6613   34.0363    1.2784 C.ar    1  UNL1        0.0038
      9 C           7.2643   34.1137    0.0173 C.ar    1  UNL1        0.0297
     10 C           8.0856   33.0824   -0.4158 C.ar    1  UNL1        0.1401
     11 F           8.6612   33.1580   -1.6227 F       1  UNL1       -0.2042
     12 C           8.3219   31.9790    0.3897 C.ar    1  UNL1        0.0297
     13 C           7.7181   31.9048    1.6490 C.ar    1  UNL1        0.0038
     14 C           7.2108   32.5541    7.1345 C.ar    1  UNL1        0.0002
     15 C           7.8207   31.3423    7.5377 C.ar    1  UNL1        0.0023
     16 C           8.6634   31.2663    8.6557 C.ar    1  UNL1        0.0296
     17 C           8.8868   32.3970    9.4220 C.ar    1  UNL1        0.1401
     18 F           9.6773   32.3260   10.5002 F       1  UNL1       -0.2042
     19 C           8.3049   33.6033    9.0745 C.ar    1  UNL1        0.0296
     20 C           7.5006   33.6817    7.9293 C.ar    1  UNL1        0.0023
     21 C           2.2056   34.0854    4.4081 C.3     1  UNL1        0.0063
     22 C           2.7207   32.6529    4.5644 C.3     1  UNL1        0.0403
     23 C           2.1992   31.7766    3.4188 C.3     1  UNL1        0.0063
     24 C           4.1347   32.3486    7.1147 C.2     1  UNL1        0.0001
     25 C           3.2327   31.3625    7.2278 C.2     1  UNL1        0.0168
     26 C           2.4064   31.1239    8.4608 C.3     1  UNL1        0.1933
     27 C           3.1570   30.2053    9.4121 C.3     1  UNL1        0.0781
     28 C           2.2502   29.8548   10.5730 C.3     1  UNL1        0.1256
     29 O           1.9866   31.0284   11.3372 O.3     1  UNL1       -0.3837
     30 C           0.9591   29.2447   10.0727 C.3     1  UNL1        0.1388
     31 C           0.3273   29.9949    8.9284 C.2     1  UNL1        0.3197
     32 O          -0.8806   29.9450    8.7281 O.2     1  UNL1       -0.2500
     33 O           1.1658   30.5501    8.0228 O.3     1  UNL1       -0.4475
     34 H           1.4953   30.7656   12.1371 H       1  UNL1        0.2104
@<TRIPOS>BOND
     1    21    22    1
     2    22    23    1
     3    22     1    1
     4     1     2   ar
     5     1     6   ar
     6     2     3   ar
     7     3     7    1
     8     3     4   ar
     9     7     8   ar
    10     7    13   ar
    11     8     9   ar
    12     9    10   ar
    13    10    11    1
    14    10    12   ar
    15    12    13   ar
    16     4     5   ar
    17     5    14    1
    18     5     6   ar
    19    14    15   ar
    20    14    20   ar
    21    15    16   ar
    22    16    17   ar
    23    17    18    1
    24    17    19   ar
    25    19    20   ar
    26     6    24    1
    27    24    25    2
    28    26    27    1
    29    26    33    1
    30    26    25    1
    31    27    28    1
    32    28    30    1
    33    28    29    1
    34    29    34    1
    35    30    31    1
    36    31    32    2
    37    31    33    1



#	Name:			CHEMBL2368205
#	Creating user name:	trannguyen
#	Creation time:		Fri Mar 18 16:33:25 2022


#	Modifying user name:	trannguyen
#	Modification time:	Fri Mar 18 16:33:25 2022

@<TRIPOS>MOLECULE
CHEMBL2368205
 35 38 0 0 0
SMALL
GASTEIGER

@<TRIPOS>ATOM
      1 C           6.2863   33.2930    4.2623 C.ar    1  UNL1        0.0806
      2 C           6.8194   33.2368    5.5481 C.ar    1  UNL1        0.0191
      3 C           6.0340   32.8809    6.6590 C.ar    1  UNL1        0.0026
      4 C           4.6770   32.5800    6.4198 C.ar    1  UNL1        0.0134
      5 C           4.1905   32.6634    5.0994 C.ar    1  UNL1        0.0585
      6 N           4.9852   33.0086    4.0527 N.ar    1  UNL1       -0.2497
      7 C           8.0085   32.0925   -0.2914 C.3     1  UNL1        0.0310
      8 C           7.9735   33.0712    0.8438 C.ar    1  UNL1       -0.0218
      9 C           8.7076   34.2506    0.8001 C.ar    1  UNL1       -0.0046
     10 C           8.6428   35.1499    1.8615 C.ar    1  UNL1       -0.0045
     11 C           7.8561   34.8872    3.0011 C.ar    1  UNL1       -0.0204
     12 C           7.8700   35.9226    4.0968 C.3     1  UNL1        0.0311
     13 C           7.1026   33.6877    3.0799 C.ar    1  UNL1        0.0134
     14 C           7.1681   32.8171    1.9632 C.ar    1  UNL1       -0.0031
     15 C           6.6864   32.8917    7.9943 C.ar    1  UNL1        0.0002
     16 C           6.5569   33.9713    8.8858 C.ar    1  UNL1        0.0023
     17 C           7.1230   33.9310   10.1646 C.ar    1  UNL1        0.0296
     18 C           7.7990   32.7931   10.5799 C.ar    1  UNL1        0.1401
     19 F           8.3104   32.7405   11.8163 F       1  UNL1       -0.2042
     20 C           7.9387   31.7036    9.7337 C.ar    1  UNL1        0.0296
     21 C           7.3967   31.7590    8.4464 C.ar    1  UNL1        0.0023
     22 C           2.7113   32.4852    4.7655 C.3     1  UNL1        0.0403
     23 C           2.0879   33.8348    4.3965 C.3     1  UNL1        0.0063
     24 C           2.4834   31.4724    3.6381 C.3     1  UNL1        0.0063
     25 C           3.7527   32.2633    7.5134 C.2     1  UNL1        0.0001
     26 C           3.7978   31.1042    8.1919 C.2     1  UNL1        0.0168
     27 C           2.8475   30.7037    9.2918 C.3     1  UNL1        0.1933
     28 C           3.0753   29.2850    9.7899 C.3     1  UNL1        0.0781
     29 C           1.9300   28.8558   10.6720 C.3     1  UNL1        0.1256
     30 O           1.9176   29.6343   11.8647 O.3     1  UNL1       -0.3837
     31 C           0.6321   28.9290    9.9019 C.3     1  UNL1        0.1388
     32 C           0.4331   30.2238    9.1733 C.2     1  UNL1        0.3197
     33 O          -0.7022   30.5982    8.8570 O.2     1  UNL1       -0.2500
     34 O           1.5155   30.9136    8.7727 O.3     1  UNL1       -0.4475
     35 H           1.1978   30.2885   11.8397 H       1  UNL1        0.2104
@<TRIPOS>BOND
     1     7     8    1
     2     8     9   ar
     3     8    14   ar
     4     9    10   ar
     5    10    11   ar
     6    11    12    1
     7    11    13   ar
     8    13     1    1
     9    13    14   ar
    10     1     2   ar
    11     1     6   ar
    12     2     3   ar
    13     3    15    1
    14     3     4   ar
    15    15    16   ar
    16    15    21   ar
    17    16    17   ar
    18    17    18   ar
    19    18    19    1
    20    18    20   ar
    21    20    21   ar
    22     4    25    1
    23     4     5   ar
    24    25    26    2
    25    27    28    1
    26    27    34    1
    27    27    26    1
    28    28    29    1
    29    29    31    1
    30    29    30    1
    31    30    35    1
    32    31    32    1
    33    32    33    2
    34    32    34    1
    35     5    22    1
    36     5     6   ar
    37    22    23    1
    38    22    24    1



#	Name:			CHEMBL3318042
#	Creating user name:	trannguyen
#	Creation time:		Fri Mar 18 16:33:25 2022


#	Modifying user name:	trannguyen
#	Modification time:	Fri Mar 18 16:33:25 2022

@<TRIPOS>MOLECULE
CHEMBL3318042
 34 36 0 0 0
SMALL
GASTEIGER

@<TRIPOS>ATOM
      1 N           4.0863   32.5013    5.0808 N.ar    1  UNL1       -0.3291
      2 C           4.0913   32.3757    6.5012 C.ar    1  UNL1        0.0596
      3 C           5.4552   32.4388    6.9181 C.ar    1  UNL1        0.0172
      4 C           6.2589   32.4638    5.7025 C.ar    1  UNL1        0.0172
      5 C           7.6507   32.5473    5.4089 C.ar    1  UNL1        0.0015
      6 C           8.1244   32.5512    4.0860 C.ar    1  UNL1        0.0001
      7 C           7.2438   32.4429    3.0315 C.ar    1  UNL1        0.0015
      8 C           5.8840   32.3440    3.2840 C.ar    1  UNL1        0.0172
      9 C           5.3939   32.3967    4.6091 C.ar    1  UNL1        0.0598
     10 C           5.9773   32.4586    8.3339 C.ar    1  UNL1        0.0016
     11 C           6.5775   31.3379    8.9385 C.ar    1  UNL1        0.0024
     12 C           7.2052   31.3882   10.1950 C.ar    1  UNL1        0.0296
     13 C           7.0701   32.5198   10.9715 C.ar    1  UNL1        0.1401
     14 F           7.5618   32.5368   12.2172 F       1  UNL1       -0.2042
     15 C           6.3881   33.6182   10.4727 C.ar    1  UNL1        0.0296
     16 C           5.8838   33.6020    9.1538 C.ar    1  UNL1        0.0024
     17 C           1.9956   31.6902    3.9170 C.3     1  UNL1        0.0245
     18 C           2.9727   32.8643    4.1565 C.3     1  UNL1        0.0856
     19 C           2.1196   34.0950    4.5518 C.3     1  UNL1        0.0245
     20 C           2.8182   32.2704    7.1845 C.2     1  UNL1        0.0152
     21 C           2.6350   31.7237    8.4018 C.2     1  UNL1        0.0097
     22 C           1.3698   31.5900    9.2328 C.3     1  UNL1        0.1965
     23 O           0.4378   32.5872    8.8247 O.3     1  UNL1       -0.3752
     24 H          -0.4528   32.2189    8.9895 H       1  UNL1        0.2110
     25 C           0.8011   30.1298    9.2726 C.3     1  UNL1        0.3160
     26 F          -0.5517   30.1887    9.0588 F       1  UNL1       -0.1987
     27 F           1.2995   29.4587    8.1908 F       1  UNL1       -0.1987
     28 C           1.0703   29.3017   10.5519 C.3     1  UNL1        0.1798
     29 O           0.1168   28.2412   10.6738 O.3     1  UNL1       -0.3787
     30 H           0.4990   27.6170   11.3438 H       1  UNL1        0.2106
     31 C           2.4690   28.7268   10.5087 C.3     1  UNL1        0.0767
     32 C           2.6920   27.2380   10.5368 C.2     1  UNL1        0.0530
     33 O           3.4960   26.7818    9.7310 O.co2   1  UNL1       -0.5491
     34 O           2.2210   26.7516   11.6483 O.co2   1  UNL1       -0.5491
@<TRIPOS>UNITY_ATOM_ATTR
33 1
charge -1
@<TRIPOS>BOND
     1    17    18    1
     2    18    19    1
     3    18     1    1
     4     1     2   ar
     5     1     9   ar
     6     2    20    1
     7     2     3   ar
     8    20    21    2
     9    21    22    1
    10    22    23    1
    11    22    25    1
    12    23    24    1
    13    25    26    1
    14    25    27    1
    15    25    28    1
    16    28    29    1
    17    28    31    1
    18    29    30    1
    19    31    32    1
    20    32    33   ar
    21    32    34   ar
    22     3    10    1
    23     3     4   ar
    24    10    11   ar
    25    10    16   ar
    26    11    12   ar
    27    12    13   ar
    28    13    14    1
    29    13    15   ar
    30    15    16   ar
    31     4     5   ar
    32     4     9   ar
    33     5     6   ar
    34     6     7   ar
    35     7     8   ar
    36     8     9   ar



#	Name:			CHEMBL3349544
#	Creating user name:	trannguyen
#	Creation time:		Fri Mar 18 16:33:25 2022


#	Modifying user name:	trannguyen
#	Modification time:	Fri Mar 18 16:33:25 2022

@<TRIPOS>MOLECULE
CHEMBL3349544
 31 33 0 0 0
SMALL
GASTEIGER

@<TRIPOS>ATOM
      1 C           3.8082   32.3703    7.4603 C.3     1  UNL1        0.1730
      2 C           2.6419   32.8910    8.3128 C.3     1  UNL1        0.0483
      3 C           2.1450   31.9577    9.4402 C.3     1  UNL1        0.0253
      4 C           0.6996   31.5012    9.2517 C.3     1  UNL1        0.0048
      5 C           3.0328   30.7911    9.7643 C.2     1  UNL1       -0.0305
      6 C           4.2672   30.6521    9.2636 C.2     1  UNL1       -0.0236
      7 C           5.2435   29.8251    9.9348 C.2     1  UNL1       -0.0091
      8 C           6.2471   30.4934   10.5253 C.2     1  UNL1       -0.0268
      9 C           6.2488   32.0125   10.4507 C.3     1  UNL1        0.0224
     10 C           7.4974   32.6017   11.1054 C.3     1  UNL1        0.0047
     11 C           5.9459   32.5220    8.9836 C.3     1  UNL1        0.0117
     12 C           4.8871   31.6051    8.2643 C.3     1  UNL1        0.0624
     13 O           3.2871   31.4441    6.4735 O.3     1  UNL1       -0.4519
     14 C           2.3844   31.8878    5.5591 C.2     1  UNL1        0.3158
     15 O           1.1751   31.9974    5.7657 O.2     1  UNL1       -0.2501
     16 C           3.0941   32.2747    4.2489 C.3     1  UNL1        0.0896
     17 C           3.2375   33.8056    4.1827 C.3     1  UNL1        0.0111
     18 C           2.2257   31.8208    3.0601 C.3     1  UNL1        0.0111
     19 C           5.6494   32.4914    3.8546 C.3     1  UNL1        0.0006
     20 C           4.4809   31.5873    4.2361 C.3     1  UNL1        0.0106
     21 C           7.2604   32.6279    8.1666 C.3     1  UNL1        0.0045
     22 C           7.5951   31.4455    7.2447 C.3     1  UNL1        0.0437
     23 C           9.0658   31.0152    7.4108 C.3     1  UNL1        0.1713
     24 C           9.5795   31.2843    8.8150 C.3     1  UNL1        0.0734
     25 C          11.0591   30.9504    8.8769 C.3     1  UNL1        0.1252
     26 O          11.2524   29.5403    8.7691 O.3     1  UNL1       -0.3838
     27 C          11.8479   31.7064    7.8270 C.3     1  UNL1        0.1388
     28 C          11.1919   31.7809    6.4759 C.2     1  UNL1        0.3194
     29 O          11.8468   32.0126    5.4642 O.2     1  UNL1       -0.2500
     30 O           9.8449   31.7276    6.4282 O.3     1  UNL1       -0.4521
     31 H          11.3163   29.2790    7.8342 H       1  UNL1        0.2104
@<TRIPOS>BOND
     1    19    20    1
     2    20    16    1
     3    16    17    1
     4    16    18    1
     5    16    14    1
     6    14    15    2
     7    14    13    1
     8     1     2    1
     9     1    12    1
    10     1    13    1
    11     2     3    1
    12     3     4    1
    13     3     5    1
    14     5     6    2
    15     6     7    1
    16     6    12    1
    17     7     8    2
    18     8     9    1
    19     9    10    1
    20     9    11    1
    21    11    12    1
    22    11    21    1
    23    21    22    1
    24    23    24    1
    25    23    30    1
    26    23    22    1
    27    24    25    1
    28    25    27    1
    29    25    26    1
    30    26    31    1
    31    27    28    1
    32    28    29    2
    33    28    30    1



#	Name:			CHEMBL3349824
#	Creating user name:	trannguyen
#	Creation time:		Fri Mar 18 16:33:25 2022


#	Modifying user name:	trannguyen
#	Modification time:	Fri Mar 18 16:33:25 2022

@<TRIPOS>MOLECULE
CHEMBL3349824
 33 35 0 0 0
SMALL
GASTEIGER

@<TRIPOS>ATOM
      1 C           4.2349   31.8788    8.5770 C.3     1  UNL1        0.1995
      2 C           3.4820   32.1971    7.2625 C.3     1  UNL1        0.0649
      3 C           2.0385   31.7356    7.3649 C.2     1  UNL1       -0.0234
      4 C           1.5943   30.8248    8.2448 C.2     1  UNL1       -0.0281
      5 C           2.5017   30.0798    9.1986 C.3     1  UNL1        0.0522
      6 C           2.0072   30.1924   10.6418 C.3     1  UNL1        0.0073
      7 C           4.0050   30.4189    9.0043 C.3     1  UNL1        0.1545
      8 O           4.7647   30.1461   10.1889 O.3     1  UNL1       -0.3804
      9 C           1.2474   32.1566    6.2314 C.2     1  UNL1       -0.0091
     10 C           1.7606   31.8713    5.0236 C.2     1  UNL1       -0.0268
     11 C           3.0459   31.0653    4.9518 C.3     1  UNL1        0.0224
     12 C           3.5124   30.8477    3.5136 C.3     1  UNL1        0.0047
     13 C           4.1417   31.5864    5.9632 C.3     1  UNL1        0.0117
     14 H           4.6143   30.8981   10.7912 H       1  UNL1        0.2105
     15 O           3.7561   32.7131    9.6744 O.3     1  UNL1       -0.4494
     16 C           3.9928   34.0521    9.6328 C.2     1  UNL1        0.3159
     17 O           4.9849   34.5889    9.1567 O.2     1  UNL1       -0.2501
     18 C           2.8138   34.7906   10.3257 C.3     1  UNL1        0.0896
     19 C           2.4385   36.0167    9.4708 C.3     1  UNL1        0.0111
     20 C           3.2422   35.2496   11.7312 C.3     1  UNL1        0.0111
     21 C           0.2400   34.4396   10.5662 C.3     1  UNL1        0.0006
     22 C           1.6153   33.8070   10.4183 C.3     1  UNL1        0.0106
     23 C           5.1387   32.5683    5.2919 C.3     1  UNL1        0.0045
     24 C           6.6173   32.1965    5.4585 C.3     1  UNL1        0.0437
     25 C           7.4500   32.4578    4.1995 C.3     1  UNL1        0.1713
     26 C           7.1697   33.8462    3.6419 C.3     1  UNL1        0.0734
     27 C           8.0313   34.0353    2.4106 C.3     1  UNL1        0.1252
     28 O           9.4070   34.0736    2.7931 O.3     1  UNL1       -0.3838
     29 C           7.8228   32.9285    1.3941 C.3     1  UNL1        0.1388
     30 C           7.4645   31.5680    1.9344 C.2     1  UNL1        0.3194
     31 O           7.3909   30.5972    1.1850 O.2     1  UNL1       -0.2500
     32 O           7.1080   31.4542    3.2298 O.3     1  UNL1       -0.4521
     33 H           9.5523   34.8921    3.3008 H       1  UNL1        0.2104
@<TRIPOS>BOND
     1    21    22    1
     2    22    18    1
     3    18    19    1
     4    18    20    1
     5    18    16    1
     6    16    17    2
     7    16    15    1
     8     1     2    1
     9     1     7    1
    10     1    15    1
    11     2     3    1
    12     2    13    1
    13     3     4    2
    14     3     9    1
    15     4     5    1
    16     5     6    1
    17     5     7    1
    18     7     8    1
    19     8    14    1
    20     9    10    2
    21    10    11    1
    22    11    12    1
    23    11    13    1
    24    13    23    1
    25    23    24    1
    26    25    26    1
    27    25    32    1
    28    25    24    1
    29    26    27    1
    30    27    29    1
    31    27    28    1
    32    28    33    1
    33    29    30    1
    34    30    31    2
    35    30    32    1



#	Name:			CHEMBL3349825
#	Creating user name:	trannguyen
#	Creation time:		Fri Mar 18 16:33:25 2022


#	Modifying user name:	trannguyen
#	Modification time:	Fri Mar 18 16:33:25 2022

@<TRIPOS>MOLECULE
CHEMBL3349825
 40 43 0 0 0
SMALL
GASTEIGER

@<TRIPOS>ATOM
      1 C           5.9009   32.9153    7.2209 C.3     1  UNL1        0.1756
      2 C           7.3247   32.3039    7.0327 C.3     1  UNL1        0.0625
      3 C           7.5001   31.0398    7.8376 C.2     1  UNL1       -0.0236
      4 C           6.7328   30.6976    8.8761 C.2     1  UNL1       -0.0304
      5 C           5.6073   31.5344    9.4171 C.3     1  UNL1        0.0279
      6 C           4.3648   30.6526    9.5738 C.3     1  UNL1        0.0049
      7 C           5.2955   32.8679    8.6658 C.3     1  UNL1        0.0756
      8 C           8.7336   30.3400    7.5537 C.2     1  UNL1       -0.0091
      9 C           9.8562   31.0704    7.6156 C.2     1  UNL1       -0.0268
     10 C           9.7435   32.5267    8.0262 C.3     1  UNL1        0.0224
     11 C          11.1141   33.2096    8.0555 C.3     1  UNL1        0.0047
     12 C           8.5727   33.2595    7.2568 C.3     1  UNL1        0.0117
     13 C           5.6377   34.1346    9.5086 C.3     1  UNL1        0.1364
     14 O           4.6411   34.2519   10.5381 O.3     1  UNL1       -0.3799
     15 H           5.0204   34.7727   11.2669 H       1  UNL1        0.2108
     16 C           7.0184   34.1393   10.1810 C.ar    1  UNL1        0.0044
     17 C           7.9573   35.1647    9.9596 C.ar    1  UNL1       -0.0020
     18 C           9.2221   35.1322   10.5698 C.ar    1  UNL1       -0.0002
     19 C           9.5775   34.0702   11.3980 C.ar    1  UNL1       -0.0000
     20 C           8.6572   33.0590   11.6469 C.ar    1  UNL1       -0.0002
     21 C           7.3896   33.1031   11.0584 C.ar    1  UNL1       -0.0020
     22 O           4.9465   32.1271    6.4175 O.3     1  UNL1       -0.4518
     23 C           4.1085   32.7645    5.5847 C.2     1  UNL1        0.3158
     24 O           4.2584   33.9372    5.2301 O.2     1  UNL1       -0.2501
     25 C           2.9167   31.9086    5.2080 C.3     1  UNL1        0.0896
     26 C           3.2716   30.9493    4.0526 C.3     1  UNL1        0.0111
     27 C           1.8170   32.8796    4.6929 C.3     1  UNL1        0.0111
     28 C           1.6897   31.9680    7.4874 C.3     1  UNL1        0.0006
     29 C           2.3449   31.1042    6.4124 C.3     1  UNL1        0.0106
     30 C           9.0466   33.9087    5.9254 C.3     1  UNL1        0.0045
     31 C           9.4810   32.9070    4.8399 C.3     1  UNL1        0.0437
     32 C           8.8376   33.1157    3.4680 C.3     1  UNL1        0.1713
     33 C           7.5010   33.8390    3.5632 C.3     1  UNL1        0.0734
     34 C           7.0333   34.1589    2.1520 C.3     1  UNL1        0.1252
     35 O           7.6062   35.4108    1.7594 O.3     1  UNL1       -0.3838
     36 C           7.4568   33.1075    1.1329 C.3     1  UNL1        0.1388
     37 C           7.8309   31.7851    1.7484 C.2     1  UNL1        0.3194
     38 O           7.4878   30.7154    1.2554 O.2     1  UNL1       -0.2500
     39 O           8.6300   31.8412    2.8417 O.3     1  UNL1       -0.4521
     40 H           7.3159   36.0896    2.3943 H       1  UNL1        0.2104
@<TRIPOS>BOND
     1    28    29    1
     2    29    25    1
     3    25    26    1
     4    25    27    1
     5    25    23    1
     6    23    24    2
     7    23    22    1
     8     1     2    1
     9     1     7    1
    10     1    22    1
    11     2     3    1
    12     2    12    1
    13     3     4    2
    14     3     8    1
    15     4     5    1
    16     5     6    1
    17     5     7    1
    18     7    13    1
    19    13    14    1
    20    13    16    1
    21    14    15    1
    22    16    17   ar
    23    16    21   ar
    24    17    18   ar
    25    18    19   ar
    26    19    20   ar
    27    20    21   ar
    28     8     9    2
    29     9    10    1
    30    10    11    1
    31    10    12    1
    32    12    30    1
    33    30    31    1
    34    32    33    1
    35    32    39    1
    36    32    31    1
    37    33    34    1
    38    34    36    1
    39    34    35    1
    40    35    40    1
    41    36    37    1
    42    37    38    2
    43    37    39    1



#	Name:			CHEMBL3349827
#	Creating user name:	trannguyen
#	Creation time:		Fri Mar 18 16:33:25 2022


#	Modifying user name:	trannguyen
#	Modification time:	Fri Mar 18 16:33:25 2022

@<TRIPOS>MOLECULE
CHEMBL3349827
 35 37 0 0 0
SMALL
GASTEIGER

@<TRIPOS>ATOM
      1 C           3.8830   32.7051    8.1620 C.3     1  UNL1        0.1752
      2 C           4.0310   32.7069    6.6220 C.3     1  UNL1        0.0625
      3 C           2.8232   32.0972    5.9552 C.2     1  UNL1       -0.0236
      4 C           1.9824   31.2452    6.5513 C.2     1  UNL1       -0.0304
      5 C           2.1542   30.7417    7.9606 C.3     1  UNL1        0.0275
      6 C           0.8157   30.7876    8.7102 C.3     1  UNL1        0.0049
      7 C           3.2892   31.4104    8.8015 C.3     1  UNL1        0.0713
      8 C           2.8050   32.3537    4.5322 C.2     1  UNL1       -0.0091
      9 C           3.9346   32.0657    3.8654 C.2     1  UNL1       -0.0268
     10 C           5.0658   31.3903    4.6222 C.3     1  UNL1        0.0224
     11 C           6.2765   31.0941    3.7349 C.3     1  UNL1        0.0047
     12 C           5.3482   32.0951    6.0059 C.3     1  UNL1        0.0117
     13 C           4.3702   30.3922    9.2383 C.3     1  UNL1        0.1143
     14 C           3.7983   29.1704    9.9684 C.3     1  UNL1        0.0319
     15 O           5.2849   31.0290   10.1334 O.3     1  UNL1       -0.3843
     16 H           4.8374   31.1528   10.9893 H       1  UNL1        0.2103
     17 O           2.9089   33.7509    8.5158 O.3     1  UNL1       -0.4519
     18 C           3.3212   34.7972    9.2864 C.2     1  UNL1        0.3158
     19 O           4.3541   35.4159    9.1057 O.2     1  UNL1       -0.2501
     20 C           2.3487   35.0655   10.4598 C.3     1  UNL1        0.0896
     21 C           3.2142   35.0317   11.7309 C.3     1  UNL1        0.0111
     22 C           1.2561   33.9842   10.5482 C.3     1  UNL1        0.0111
     23 C           0.1771   36.5160   10.3908 C.3     1  UNL1        0.0006
     24 C           1.7005   36.4621   10.2613 C.3     1  UNL1        0.0106
     25 C           6.4959   33.1416    5.9419 C.3     1  UNL1        0.0045
     26 C           7.5125   33.0851    7.0988 C.3     1  UNL1        0.0437
     27 C           7.1889   34.0699    8.2327 C.3     1  UNL1        0.1713
     28 C           8.3211   35.0703    8.4031 C.3     1  UNL1        0.0734
     29 C           8.0328   35.9534    9.5986 C.3     1  UNL1        0.1252
     30 O           6.9269   36.8136    9.3292 O.3     1  UNL1       -0.3838
     31 C           7.8085   35.1444   10.8594 C.3     1  UNL1        0.1388
     32 C           7.1249   33.8158   10.6811 C.2     1  UNL1        0.3194
     33 O           6.7721   33.1626   11.6610 O.2     1  UNL1       -0.2500
     34 O           6.9804   33.3111    9.4404 O.3     1  UNL1       -0.4521
     35 H           6.0922   36.3238    9.4280 H       1  UNL1        0.2104
@<TRIPOS>BOND
     1    23    24    1
     2    24    20    1
     3    20    21    1
     4    20    22    1
     5    20    18    1
     6    18    19    2
     7    18    17    1
     8     1     2    1
     9     1     7    1
    10     1    17    1
    11     2     3    1
    12     2    12    1
    13     3     4    2
    14     3     8    1
    15     4     5    1
    16     5     6    1
    17     5     7    1
    18     7    13    1
    19    13    15    1
    20    13    14    1
    21    15    16    1
    22     8     9    2
    23     9    10    1
    24    10    11    1
    25    10    12    1
    26    12    25    1
    27    25    26    1
    28    27    28    1
    29    27    34    1
    30    27    26    1
    31    28    29    1
    32    29    31    1
    33    29    30    1
    34    30    35    1
    35    31    32    1
    36    32    33    2
    37    32    34    1



#	Name:			CHEMBL3349828
#	Creating user name:	trannguyen
#	Creation time:		Fri Mar 18 16:33:25 2022


#	Modifying user name:	trannguyen
#	Modification time:	Fri Mar 18 16:33:25 2022

@<TRIPOS>MOLECULE
CHEMBL3349828
 34 36 0 0 0
SMALL
GASTEIGER

@<TRIPOS>ATOM
      1 C           3.3031   32.2289    8.0241 C.3     1  UNL1        0.1753
      2 C           4.6289   31.7365    8.6593 C.3     1  UNL1        0.0625
      3 C           4.4484   30.4230    9.3767 C.2     1  UNL1       -0.0236
      4 C           3.2807   29.9772    9.8505 C.2     1  UNL1       -0.0304
      5 C           2.0263   30.8045    9.8324 C.3     1  UNL1        0.0276
      6 C           0.8013   29.9140    9.6006 C.3     1  UNL1        0.0049
      7 C           2.0298   32.0514    8.8939 C.3     1  UNL1        0.0737
      8 C           5.7039   29.8020    9.7242 C.2     1  UNL1       -0.0091
      9 C           6.5911   30.5809   10.3628 C.2     1  UNL1       -0.0268
     10 C           6.2042   32.0062   10.7257 C.3     1  UNL1        0.0224
     11 C           7.3734   32.7657   11.3608 C.3     1  UNL1        0.0047
     12 C           5.4524   32.7402    9.5452 C.3     1  UNL1        0.0117
     13 C           1.7101   33.3097    9.7095 C.3     1  UNL1        0.1410
     14 O           0.3081   33.5154    9.8114 O.3     1  UNL1       -0.3819
     15 H          -0.0755   32.7502   10.2749 H       1  UNL1        0.2104
     16 O           3.0571   31.3637    6.8642 O.3     1  UNL1       -0.4519
     17 C           2.3002   31.8228    5.8365 C.2     1  UNL1        0.3158
     18 O           1.0702   31.9009    5.8602 O.2     1  UNL1       -0.2501
     19 C           3.1805   32.3298    4.6780 C.3     1  UNL1        0.0896
     20 C           3.4590   33.8395    4.8285 C.3     1  UNL1        0.0111
     21 C           2.3826   32.1125    3.3788 C.3     1  UNL1        0.0111
     22 C           5.6155   32.1202    3.8024 C.3     1  UNL1        0.0006
     23 C           4.5032   31.5269    4.6647 C.3     1  UNL1        0.0106
     24 C           6.3992   33.6070    8.6698 C.3     1  UNL1        0.0045
     25 C           6.6849   33.0443    7.2647 C.3     1  UNL1        0.0437
     26 C           8.1502   32.6441    7.0577 C.3     1  UNL1        0.1713
     27 C           8.3156   31.1423    7.2717 C.3     1  UNL1        0.0734
     28 C           9.7062   30.8078    7.7573 C.3     1  UNL1        0.1252
     29 O          10.6812   31.0736    6.7558 O.3     1  UNL1       -0.3838
     30 C           9.9913   31.5598    9.0388 C.3     1  UNL1        0.1388
     31 C           9.7770   33.0356    8.9024 C.2     1  UNL1        0.3194
     32 O          10.3017   33.8301    9.6767 O.2     1  UNL1       -0.2500
     33 O           8.9731   33.4700    7.9131 O.3     1  UNL1       -0.4521
     34 H          10.7465   32.0335    6.6037 H       1  UNL1        0.2104
@<TRIPOS>BOND
     1    22    23    1
     2    23    19    1
     3    19    20    1
     4    19    21    1
     5    19    17    1
     6    17    18    2
     7    17    16    1
     8     1     2    1
     9     1     7    1
    10     1    16    1
    11     2     3    1
    12     2    12    1
    13     3     4    2
    14     3     8    1
    15     4     5    1
    16     5     6    1
    17     5     7    1
    18     7    13    1
    19    13    14    1
    20    14    15    1
    21     8     9    2
    22     9    10    1
    23    10    11    1
    24    10    12    1
    25    12    24    1
    26    24    25    1
    27    26    27    1
    28    26    33    1
    29    26    25    1
    30    27    28    1
    31    28    30    1
    32    28    29    1
    33    29    34    1
    34    30    31    1
    35    31    32    2
    36    31    33    1



#	Name:			CHEMBL3677707
#	Creating user name:	trannguyen
#	Creation time:		Fri Mar 18 16:33:25 2022


#	Modifying user name:	trannguyen
#	Modification time:	Fri Mar 18 16:33:25 2022

@<TRIPOS>MOLECULE
CHEMBL3677707
 43 46 0 0 0
SMALL
GASTEIGER

@<TRIPOS>ATOM
      1 C           8.5398   34.5416    3.7722 C.ar    1  UNL1        0.0629
      2 N           8.7615   34.5785    2.4510 N.ar    1  UNL1       -0.2168
      3 C           7.8294   34.0296    1.6690 C.ar    1  UNL1        0.2387
      4 N           6.5906   33.5929    2.0217 N.ar    1  UNL1       -0.2124
      5 C           6.2405   33.6122    3.3441 C.ar    1  UNL1        0.0853
      6 C           7.3135   34.0255    4.2964 C.ar    1  UNL1        0.0311
      7 C           4.6392   33.0344    3.5555 C.ar    1  UNL1        0.0179
      8 C           3.3736   33.7151    3.7392 C.ar    1  UNL1        0.0038
      9 C           2.0999   33.4101    4.2247 C.ar    1  UNL1        0.0297
     10 C           1.9774   32.1693    4.6678 C.ar    1  UNL1        0.1401
     11 F           0.8852   31.8208    5.3593 F       1  UNL1       -0.2042
     12 C           3.0599   31.2896    4.4010 C.ar    1  UNL1        0.0297
     13 C           4.3601   31.7125    3.8682 C.ar    1  UNL1        0.0038
     14 C          10.8763   34.1587    4.7352 C.3     1  UNL1        0.0063
     15 C           9.7020   35.1370    4.6044 C.3     1  UNL1        0.0404
     16 C          10.2491   36.4962    4.1529 C.3     1  UNL1        0.0063
     17 N           8.1520   33.9979    0.2942 N.pl3   1  UNL1       -0.1605
     18 C           7.1888   34.7609   -0.5427 C.3     1  UNL1        0.1420
     19 S           8.5226   32.4645   -0.3129 S.O2    1  UNL1        0.0611
     20 C           7.7131   32.3829   -1.9094 C.3     1  UNL1        0.1999
     21 O          10.0151   32.4679   -0.6341 O.2     1  UNL1       -0.1541
     22 O           8.0142   31.5066    0.5259 O.2     1  UNL1       -0.1541
     23 C           7.4554   33.7459    5.7643 C.2     1  UNL1        0.0005
     24 C           6.5801   33.2509    6.6505 C.2     1  UNL1        0.0031
     25 C           7.0236   32.5937    7.9585 C.3     1  UNL1        0.1422
     26 C           5.8430   32.4829    8.9397 C.3     1  UNL1        0.0639
     27 C           6.1795   31.5088   10.0630 C.3     1  UNL1        0.1235
     28 C           7.5803   31.8816   10.5939 C.3     1  UNL1        0.0909
     29 C           8.6420   31.9702    9.4840 C.3     1  UNL1        0.2377
     30 O           8.2150   33.0288    8.5857 O.3     1  UNL1       -0.3284
     31 O           5.8719   30.1286    9.7501 O.3     1  UNL1       -0.3512
     32 C           4.8733   29.3684   10.4292 C.3     1  UNL1        0.1685
     33 C           3.4559   29.4076    9.9660 C.ar    1  UNL1        0.0073
     34 C           2.5952   28.4885   10.3981 C.ar    1  UNL1       -0.0019
     35 C           1.2166   28.6773   10.4608 C.ar    1  UNL1       -0.0002
     36 C           0.6011   29.4698    9.5323 C.ar    1  UNL1       -0.0000
     37 C           1.4649   30.2905    8.8576 C.ar    1  UNL1       -0.0002
     38 C           2.8302   30.3722    9.2181 C.ar    1  UNL1       -0.0019
     39 O           9.9531   32.1833    9.9714 O.3     1  UNL1       -0.3353
     40 C          11.0118   31.5320    9.2284 C.3     1  UNL1        0.0955
     41 C          10.3313   30.2841    8.6748 C.3     1  UNL1        0.0297
     42 C          11.5948   32.3523    8.0513 C.3     1  UNL1        0.0297
     43 C          12.1664   31.0603   10.1141 C.3     1  UNL1        0.0297
@<TRIPOS>BOND
     1    14    15    1
     2    15    16    1
     3    15     1    1
     4     1     2   ar
     5     1     6   ar
     6     2     3   ar
     7     3    17    1
     8     3     4   ar
     9    17    18    1
    10    17    19    1
    11    19    20    1
    12    19    21    2
    13    19    22    2
    14     4     5   ar
    15     5     7    1
    16     5     6   ar
    17     7     8   ar
    18     7    13   ar
    19     8     9   ar
    20     9    10   ar
    21    10    11    1
    22    10    12   ar
    23    12    13   ar
    24     6    23    1
    25    23    24    2
    26    25    26    1
    27    25    30    1
    28    25    24    1
    29    26    27    1
    30    27    28    1
    31    27    31    1
    32    31    32    1
    33    32    33    1
    34    33    34   ar
    35    33    38   ar
    36    34    35   ar
    37    35    36   ar
    38    36    37   ar
    39    37    38   ar
    40    28    29    1
    41    29    39    1
    42    29    30    1
    43    39    40    1
    44    40    41    1
    45    40    42    1
    46    40    43    1



#	Name:			CHEMBL3677708
#	Creating user name:	trannguyen
#	Creation time:		Fri Mar 18 16:33:25 2022


#	Modifying user name:	trannguyen
#	Modification time:	Fri Mar 18 16:33:25 2022

@<TRIPOS>MOLECULE
CHEMBL3677708
 42 45 0 0 0
SMALL
GASTEIGER

@<TRIPOS>ATOM
      1 C           5.0478   32.7218    6.0157 C.ar    1  UNL1        0.0311
      2 C           5.4409   32.6255    7.3843 C.ar    1  UNL1        0.0853
      3 N           4.5290   32.6107    8.4008 N.ar    1  UNL1       -0.2124
      4 C           3.2450   32.5311    8.0849 C.ar    1  UNL1        0.2387
      5 N           2.7813   32.3927    6.8512 N.ar    1  UNL1       -0.2168
      6 C           3.6641   32.4762    5.8120 C.ar    1  UNL1        0.0629
      7 C           6.8388   32.4587    7.9360 C.ar    1  UNL1        0.0179
      8 C           7.6536   33.5246    8.3565 C.ar    1  UNL1        0.0038
      9 C           8.9020   33.3373    8.9567 C.ar    1  UNL1        0.0297
     10 C           9.4431   32.0696    9.0162 C.ar    1  UNL1        0.1401
     11 F          10.6402   31.8888    9.5862 F       1  UNL1       -0.2042
     12 C           8.7604   30.9959    8.4729 C.ar    1  UNL1        0.0297
     13 C           7.4674   31.1867    7.9606 C.ar    1  UNL1        0.0038
     14 C           2.9852   32.2274    4.4544 C.3     1  UNL1        0.0404
     15 C           3.0690   30.7832    3.9369 C.3     1  UNL1        0.0063
     16 C           1.4801   32.5773    4.4755 C.3     1  UNL1        0.0063
     17 C           5.9710   33.9857    3.9724 C.2     1  UNL1        0.0031
     18 C           6.0212   33.0282    4.9101 C.2     1  UNL1        0.0005
     19 C           9.1802   35.2875    2.7541 C.3     1  UNL1        0.2381
     20 C           9.0657   34.8740    1.3119 C.3     1  UNL1        0.0909
     21 C           8.5246   33.4699    0.9877 C.3     1  UNL1        0.1235
     22 C           7.6502   32.9474    2.0995 C.3     1  UNL1        0.0639
     23 C           6.9495   34.2205    2.7987 C.3     1  UNL1        0.1422
     24 O           7.8992   35.1868    3.3743 O.3     1  UNL1       -0.3283
     25 O          10.3059   34.8036    3.5013 O.3     1  UNL1       -0.3255
     26 C          10.1806   34.4890    4.8846 C.3     1  UNL1        0.1710
     27 C          10.9032   32.2031    5.6298 C.2     1  UNL1       -0.0023
     28 C           9.9394   33.0085    5.2058 C.2     1  UNL1        0.0057
     29 O           7.6115   33.4348   -0.1005 O.3     1  UNL1       -0.3512
     30 C           7.8503   32.4170   -1.0482 C.3     1  UNL1        0.1685
     31 C           8.4237   32.9834   -2.3186 C.ar    1  UNL1        0.0073
     32 C           7.6576   33.7895   -3.1827 C.ar    1  UNL1       -0.0019
     33 C           8.2598   34.4076   -4.2800 C.ar    1  UNL1       -0.0002
     34 C           9.6265   34.2453   -4.5069 C.ar    1  UNL1       -0.0000
     35 C          10.3970   33.4788   -3.6350 C.ar    1  UNL1       -0.0002
     36 C           9.7958   32.8335   -2.5592 C.ar    1  UNL1       -0.0019
     37 N           2.2961   32.4208    9.1314 N.pl3   1  UNL1       -0.1605
     38 C           2.3672   33.4746   10.1631 C.3     1  UNL1        0.1420
     39 S           2.1836   30.8659    9.7923 S.O2    1  UNL1        0.0611
     40 C           0.6051   30.3000    9.1989 C.3     1  UNL1        0.1999
     41 O           3.2252   29.9877    9.1716 O.2     1  UNL1       -0.1541
     42 O           2.0844   30.9584   11.1898 O.2     1  UNL1       -0.1541
@<TRIPOS>BOND
     1    27    28    2
     2    28    26    1
     3    26    25    1
     4    25    19    1
     5    19    20    1
     6    19    24    1
     7    20    21    1
     8    21    29    1
     9    21    22    1
    10    29    30    1
    11    30    31    1
    12    31    32   ar
    13    31    36   ar
    14    32    33   ar
    15    33    34   ar
    16    34    35   ar
    17    35    36   ar
    18    22    23    1
    19    23    24    1
    20    23    17    1
    21    17    18    2
    22    18     1    1
    23     1     2   ar
    24     1     6   ar
    25     2     7    1
    26     2     3   ar
    27     7     8   ar
    28     7    13   ar
    29     8     9   ar
    30     9    10   ar
    31    10    11    1
    32    10    12   ar
    33    12    13   ar
    34     3     4   ar
    35     4    37    1
    36     4     5   ar
    37    37    38    1
    38    37    39    1
    39    39    40    1
    40    39    41    2
    41    39    42    2
    42     5     6   ar
    43     6    14    1
    44    14    15    1
    45    14    16    1



#	Name:			CHEMBL3677709
#	Creating user name:	trannguyen
#	Creation time:		Fri Mar 18 16:33:25 2022


#	Modifying user name:	trannguyen
#	Modification time:	Fri Mar 18 16:33:25 2022

@<TRIPOS>MOLECULE
CHEMBL3677709
 44 47 0 0 0
SMALL
GASTEIGER

@<TRIPOS>ATOM
      1 C           3.2334   31.9232    6.0313 C.ar    1  UNL1        0.0629
      2 N           2.2310   31.4178    6.7797 N.ar    1  UNL1       -0.2168
      3 C           2.4756   31.2604    8.0813 C.ar    1  UNL1        0.2387
      4 N           3.6029   31.5374    8.7282 N.ar    1  UNL1       -0.2124
      5 C           4.6249   32.0228    7.9847 C.ar    1  UNL1        0.0853
      6 C           4.4774   32.2557    6.6006 C.ar    1  UNL1        0.0311
      7 C           5.8623   32.2329    8.8046 C.ar    1  UNL1        0.0179
      8 C           5.9584   33.3341    9.6914 C.ar    1  UNL1        0.0038
      9 C           7.0762   33.5351   10.5134 C.ar    1  UNL1        0.0297
     10 C           8.1314   32.6400   10.4583 C.ar    1  UNL1        0.1401
     11 F           9.2066   32.8289   11.2343 F       1  UNL1       -0.2042
     12 C           8.0758   31.5406    9.6170 C.ar    1  UNL1        0.0297
     13 C           6.9445   31.3319    8.8154 C.ar    1  UNL1        0.0038
     14 C           3.1145   30.6941    3.8282 C.3     1  UNL1        0.0063
     15 C           2.9468   32.0439    4.5329 C.3     1  UNL1        0.0404
     16 C           1.5437   32.5899    4.2225 C.3     1  UNL1        0.0063
     17 N           1.4491   30.6627    8.8390 N.pl3   1  UNL1       -0.1605
     18 C           0.2664   31.4907    9.0762 C.3     1  UNL1        0.1420
     19 S           2.0728   29.7650   10.1212 S.O2    1  UNL1        0.0611
     20 C           0.7901   28.5683   10.4385 C.3     1  UNL1        0.1999
     21 O           3.1733   28.9840    9.5635 O.2     1  UNL1       -0.1541
     22 O           2.2769   30.5662   11.3074 O.2     1  UNL1       -0.1541
     23 C           5.5238   32.8911    5.7913 C.2     1  UNL1        0.0005
     24 C           6.4650   32.1417    5.1997 C.2     1  UNL1        0.0031
     25 C           7.5526   32.6586    4.3042 C.3     1  UNL1        0.1422
     26 C           7.7813   34.1443    4.6026 C.3     1  UNL1        0.0639
     27 C           8.7154   34.7603    3.5604 C.3     1  UNL1        0.1235
     28 C           8.0974   34.5024    2.1857 C.3     1  UNL1        0.0909
     29 C           7.9465   32.9972    1.9813 C.3     1  UNL1        0.2379
     30 O           7.0700   32.4710    2.9726 O.3     1  UNL1       -0.3284
     31 O          10.0142   34.1598    3.6899 O.3     1  UNL1       -0.3512
     32 C          10.8064   34.7653    4.7125 C.3     1  UNL1        0.1685
     33 C          10.9193   33.8617    5.9101 C.ar    1  UNL1        0.0073
     34 C          11.0158   34.4004    7.1979 C.ar    1  UNL1       -0.0019
     35 C          11.1971   33.5639    8.3001 C.ar    1  UNL1       -0.0002
     36 C          11.2722   32.1825    8.1265 C.ar    1  UNL1       -0.0000
     37 C          11.1606   31.6332    6.8511 C.ar    1  UNL1       -0.0002
     38 C          10.9793   32.4680    5.7475 C.ar    1  UNL1       -0.0019
     39 O           7.3959   32.7873    0.6785 O.3     1  UNL1       -0.3265
     40 C           8.4169   32.4590   -0.2797 C.3     1  UNL1        0.1905
     41 C           8.6739   33.5875   -1.2975 C.3     1  UNL1        0.2251
     42 CL          7.3118   34.7514   -1.3172 Cl      1  UNL1       -0.0800
     43 CL         10.1629   34.4765   -0.8220 Cl      1  UNL1       -0.0800
     44 CL          8.9131   32.9337   -2.9462 Cl      1  UNL1       -0.0800
@<TRIPOS>BOND
     1    14    15    1
     2    15    16    1
     3    15     1    1
     4     1     2   ar
     5     1     6   ar
     6     2     3   ar
     7     3    17    1
     8     3     4   ar
     9    17    18    1
    10    17    19    1
    11    19    20    1
    12    19    21    2
    13    19    22    2
    14     4     5   ar
    15     5     7    1
    16     5     6   ar
    17     7     8   ar
    18     7    13   ar
    19     8     9   ar
    20     9    10   ar
    21    10    11    1
    22    10    12   ar
    23    12    13   ar
    24     6    23    1
    25    23    24    2
    26    25    26    1
    27    25    30    1
    28    25    24    1
    29    26    27    1
    30    27    28    1
    31    27    31    1
    32    31    32    1
    33    32    33    1
    34    33    34   ar
    35    33    38   ar
    36    34    35   ar
    37    35    36   ar
    38    36    37   ar
    39    37    38   ar
    40    28    29    1
    41    29    39    1
    42    29    30    1
    43    39    40    1
    44    40    41    1
    45    41    42    1
    46    41    43    1
    47    41    44    1



#	Name:			CHEMBL3684074
#	Creating user name:	trannguyen
#	Creation time:		Fri Mar 18 16:33:25 2022


#	Modifying user name:	trannguyen
#	Modification time:	Fri Mar 18 16:33:25 2022

@<TRIPOS>MOLECULE
CHEMBL3684074
 40 43 0 0 0
SMALL
GASTEIGER

@<TRIPOS>ATOM
      1 C           7.2988   33.0156    4.7484 C.ar    1  UNL1        0.0311
      2 C           6.3001   33.0360    3.7503 C.ar    1  UNL1        0.0853
      3 N           6.6053   33.3010    2.4495 N.ar    1  UNL1       -0.2124
      4 C           7.8836   33.5373    2.1534 C.ar    1  UNL1        0.2387
      5 N           8.8951   33.5174    3.0030 N.ar    1  UNL1       -0.2168
      6 C           8.6142   33.2473    4.2988 C.ar    1  UNL1        0.0629
      7 C           4.8308   32.7654    3.9296 C.ar    1  UNL1        0.0179
      8 C           4.3848   31.4569    4.2459 C.ar    1  UNL1        0.0038
      9 C           3.0333   31.1554    4.4676 C.ar    1  UNL1        0.0297
     10 C           2.0868   32.1593    4.3612 C.ar    1  UNL1        0.1401
     11 F           0.7917   31.8778    4.5554 F       1  UNL1       -0.2042
     12 C           2.4730   33.4569    4.0665 C.ar    1  UNL1        0.0297
     13 C           3.8317   33.7575    3.8756 C.ar    1  UNL1        0.0038
     14 C           9.8569   33.1764    5.1786 C.3     1  UNL1        0.0404
     15 C          10.5930   31.8454    4.9522 C.3     1  UNL1        0.0063
     16 C          10.8244   34.3331    4.8891 C.3     1  UNL1        0.0063
     17 C           7.5293   33.5694    7.1400 C.2     1  UNL1        0.0031
     18 C           6.9921   32.8019    6.1768 C.2     1  UNL1        0.0005
     19 C           4.9273   34.0824    8.9221 C.3     1  UNL1        0.2379
     20 C           4.7369   32.9263    9.8769 C.3     1  UNL1        0.0909
     21 C           5.5939   31.7463    9.4431 C.3     1  UNL1        0.1235
     22 C           7.0613   32.1649    9.3370 C.3     1  UNL1        0.0639
     23 C           7.2842   33.5187    8.6342 C.3     1  UNL1        0.1422
     24 O           6.2896   34.5017    8.9498 O.3     1  UNL1       -0.3284
     25 C           3.0549   33.6406    7.5093 C.3     1  UNL1        0.1768
     26 O           4.4752   33.7344    7.6127 O.3     1  UNL1       -0.3277
     27 O           5.4981   30.6916   10.4110 O.3     1  UNL1       -0.3512
     28 C           5.0814   29.4384    9.8583 C.3     1  UNL1        0.1685
     29 C           3.5938   29.2407    9.9871 C.ar    1  UNL1        0.0073
     30 C           3.1084   28.2030   10.7988 C.ar    1  UNL1       -0.0019
     31 C           1.7357   28.0081   10.9513 C.ar    1  UNL1       -0.0002
     32 C           0.8373   28.8427   10.2895 C.ar    1  UNL1       -0.0000
     33 C           1.3086   29.8616    9.4648 C.ar    1  UNL1       -0.0002
     34 C           2.6791   30.0560    9.3106 C.ar    1  UNL1       -0.0019
     35 N           8.1947   33.7631    0.7980 N.pl3   1  UNL1       -0.1605
     36 C           7.4203   34.8054    0.1313 C.3     1  UNL1        0.1420
     37 S           8.4797   32.3706   -0.0831 S.O2    1  UNL1        0.0611
     38 C           7.7908   32.7044   -1.6920 C.3     1  UNL1        0.1999
     39 O           9.9178   32.1888   -0.2379 O.2     1  UNL1       -0.1541
     40 O           7.6660   31.2784    0.4801 O.2     1  UNL1       -0.1541
@<TRIPOS>BOND
     1    25    26    1
     2    26    19    1
     3    19    20    1
     4    19    24    1
     5    20    21    1
     6    21    27    1
     7    21    22    1
     8    27    28    1
     9    28    29    1
    10    29    30   ar
    11    29    34   ar
    12    30    31   ar
    13    31    32   ar
    14    32    33   ar
    15    33    34   ar
    16    22    23    1
    17    23    24    1
    18    23    17    1
    19    17    18    2
    20    18     1    1
    21     1     2   ar
    22     1     6   ar
    23     2     7    1
    24     2     3   ar
    25     7     8   ar
    26     7    13   ar
    27     8     9   ar
    28     9    10   ar
    29    10    11    1
    30    10    12   ar
    31    12    13   ar
    32     3     4   ar
    33     4    35    1
    34     4     5   ar
    35    35    36    1
    36    35    37    1
    37    37    38    1
    38    37    39    2
    39    37    40    2
    40     5     6   ar
    41     6    14    1
    42    14    15    1
    43    14    16    1



#	Name:			CHEMBL3704922
#	Creating user name:	trannguyen
#	Creation time:		Fri Mar 18 16:33:25 2022


#	Modifying user name:	trannguyen
#	Modification time:	Fri Mar 18 16:33:25 2022

@<TRIPOS>MOLECULE
CHEMBL3704922
 42 45 0 0 0
SMALL
GASTEIGER

@<TRIPOS>ATOM
      1 C           4.1971   32.9820    8.8514 C.3     1  UNL1        0.0000
      2 C           3.7489   32.8719    7.3862 C.3     1  UNL1        0.0000
      3 C           2.3663   32.1792    7.3850 C.3     1  UNL1        0.0000
      4 C           1.8667   31.8627    5.9764 C.3     1  UNL1        0.0000
      5 C           2.3781   30.9302    8.2372 C.2     1  UNL1        0.0000
      6 C           3.3544   30.6346    9.1157 C.2     1  UNL1        0.0000
      7 C           3.3913   29.3387    9.7543 C.2     1  UNL1        0.0000
      8 C           4.5469   28.8238   10.1937 C.2     1  UNL1        0.0000
      9 C           5.8846   29.5265   10.0679 C.3     1  UNL1        0.0000
     10 C           6.3600   29.8637   11.4895 C.3     1  UNL1        0.0000
     11 C           5.8298   30.7719    9.0939 C.3     1  UNL1        0.0000
     12 C           4.5252   31.5779    9.4381 C.3     1  UNL1        0.0000
     13 O           5.1876   33.9830    9.1245 O.3     1  UNL1        0.0000
     14 N           6.1985   34.5622   11.1509 N.am    1  UNL1        0.0000
     15 C           5.0491   34.4841   10.3970 C.2     1  UNL1        0.0000
     16 O           3.9543   34.6861   10.9132 O.2     1  UNL1        0.0000
     17 H           6.0141   34.5015   12.1444 H       1  UNL1        0.0000
     18 C          10.2156   34.9321    9.9884 C.ar    1  UNL1        0.0000
     19 C           9.8659   34.0327   10.9911 C.ar    1  UNL1        0.0000
     20 C           8.5311   33.8754   11.3510 C.ar    1  UNL1        0.0000
     21 C           7.5356   34.6289   10.7361 C.ar    1  UNL1        0.0000
     22 C           7.8767   35.4703    9.6675 C.ar    1  UNL1        0.0000
     23 C           9.2209   35.6332    9.3045 C.ar    1  UNL1        0.0000
     24 C          12.7391   35.3810    9.4255 C.1     1  UNL1        0.0000
     25 C          11.6047   35.1545    9.7113 C.1     1  UNL1        0.0000
     26 C           7.1570   31.5642    9.0780 C.3     1  UNL1        0.0000
     27 C           8.3730   30.7813    8.4984 C.3     1  UNL1        0.0000
     28 C           9.5299   31.7257    8.0964 C.3     1  UNL1        0.0000
     29 C           9.8591   31.6800    6.6028 C.3     1  UNL1        0.0000
     30 C          11.1562   32.4568    6.3246 C.3     1  UNL1        0.0000
     31 C          12.2376   31.7647    7.1299 C.3     1  UNL1        0.0000
     32 C          11.9230   31.6866    8.5923 C.2     1  UNL1        0.0000
     33 O          12.8013   31.7444    9.4472 O.2     1  UNL1        0.0000
     34 O          10.6583   31.3493    8.9160 O.3     1  UNL1        0.0000
     35 O          11.0120   33.8620    6.5934 O.3     1  UNL1        0.0000
     36 SI         10.4061   34.9830    5.4751 Si      1  UNL1        0.0000
     37 C          10.2479   36.7444    6.1730 C.3     1  UNL1        0.0000
     38 C          11.4975   35.1703    3.9159 C.3     1  UNL1        0.0000
     39 C           8.4927   34.5045    4.7443 C.3     1  UNL1        0.0000
     40 C           8.6115   33.3468    3.7388 C.3     1  UNL1        0.0000
     41 C           7.5294   34.0840    5.8723 C.3     1  UNL1        0.0000
     42 C           7.9372   35.7547    4.0210 C.3     1  UNL1        0.0000
@<TRIPOS>BOND
     1    24    25    3
     2    25    18    1
     3    18    19   ar
     4    18    23   ar
     5    19    20   ar
     6    20    21   ar
     7    21    14    1
     8    21    22   ar
     9    14    15   am
    10    14    17    1
    11    15    16    2
    12    15    13    1
    13     1     2    1
    14     1    12    1
    15     1    13    1
    16     2     3    1
    17     3     4    1
    18     3     5    1
    19     5     6    2
    20     6     7    1
    21     6    12    1
    22     7     8    2
    23     8     9    1
    24     9    10    1
    25     9    11    1
    26    11    26    1
    27    11    12    1
    28    26    27    1
    29    28    29    1
    30    28    34    1
    31    28    27    1
    32    29    30    1
    33    30    31    1
    34    30    35    1
    35    35    36    1
    36    36    37    1
    37    36    38    1
    38    36    39    1
    39    39    40    1
    40    39    41    1
    41    39    42    1
    42    31    32    1
    43    32    33    2
    44    32    34    1
    45    22    23   ar



#	Name:			CHEMBL3704923
#	Creating user name:	trannguyen
#	Creation time:		Fri Mar 18 16:33:25 2022


#	Modifying user name:	trannguyen
#	Modification time:	Fri Mar 18 16:33:25 2022

@<TRIPOS>MOLECULE
CHEMBL3704923
 43 46 0 0 0
SMALL
GASTEIGER

@<TRIPOS>ATOM
      1 C           4.5771   32.3478    6.5846 C.3     1  UNL1        0.0000
      2 C           3.2824   32.1978    5.7231 C.3     1  UNL1        0.0000
      3 C           3.5160   31.8649    4.2408 C.3     1  UNL1        0.0000
      4 C           2.2263   32.0138    3.4211 C.3     1  UNL1        0.0000
      5 C           4.5768   32.7799    3.7055 C.2     1  UNL1        0.0000
      6 C           5.6679   33.0816    4.4333 C.2     1  UNL1        0.0000
      7 C           6.5636   34.0947    3.9537 C.2     1  UNL1        0.0000
      8 C           7.6975   34.4120    4.5765 C.2     1  UNL1        0.0000
      9 C           8.2339   33.7117    5.7944 C.3     1  UNL1        0.0000
     10 C           9.4921   32.9605    5.3504 C.3     1  UNL1        0.0000
     11 C           7.1561   32.9203    6.6185 C.3     1  UNL1        0.0000
     12 C           5.9250   32.3841    5.7664 C.3     1  UNL1        0.0000
     13 O           4.4222   33.5779    7.3485 O.3     1  UNL1        0.0000
     14 N           3.2997   34.7788    8.8213 N.am    1  UNL1        0.0000
     15 C           3.7048   33.5186    8.4987 C.2     1  UNL1        0.0000
     16 O           3.3976   32.4964    9.0898 O.2     1  UNL1        0.0000
     17 H           3.5926   35.4966    8.1752 H       1  UNL1        0.0000
     18 C           2.1584   35.0433    9.6717 C.3     1  UNL1        0.0000
     19 C           1.3838   39.3042    9.9390 C.ar    1  UNL1        0.0000
     20 C           1.9162   38.7679    8.7661 C.ar    1  UNL1        0.0000
     21 C           2.1461   37.3867    8.6623 C.ar    1  UNL1        0.0000
     22 C           1.8576   36.5287    9.7361 C.ar    1  UNL1        0.0000
     23 C           1.3122   37.0832   10.9042 C.ar    1  UNL1        0.0000
     24 C           1.0700   38.4571   11.0016 C.ar    1  UNL1        0.0000
     25 C           1.0262   41.8922   10.2049 C.1     1  UNL1        0.0000
     26 C           1.1633   40.7235   10.0739 C.1     1  UNL1        0.0000
     27 C           7.7348   31.8246    7.6049 C.3     1  UNL1        0.0000
     28 C           7.2856   32.0046    9.0720 C.3     1  UNL1        0.0000
     29 C           7.1412   33.4357    9.6482 C.3     1  UNL1        0.0000
     30 C           8.4095   34.1414   10.1119 C.3     1  UNL1        0.0000
     31 C           8.0608   35.6308   10.2277 C.3     1  UNL1        0.0000
     32 C           6.9811   35.7358   11.3141 C.3     1  UNL1        0.0000
     33 C           5.8956   34.6734   11.2863 C.2     1  UNL1        0.0000
     34 O           4.8423   34.8322   11.8992 O.2     1  UNL1        0.0000
     35 O           6.1981   33.4676   10.7310 O.3     1  UNL1        0.0000
     36 O           7.6111   36.2345    8.9937 O.3     1  UNL1        0.0000
     37 SI          8.3232   37.5947    8.2806 Si      1  UNL1        0.0000
     38 C           9.4284   37.1989    6.7942 C.3     1  UNL1        0.0000
     39 C           7.0674   38.8812    7.6395 C.3     1  UNL1        0.0000
     40 C           9.5113   38.6896    9.6073 C.3     1  UNL1        0.0000
     41 C          10.6897   37.8008   10.0749 C.3     1  UNL1        0.0000
     42 C          10.0406   39.9350    8.8655 C.3     1  UNL1        0.0000
     43 C           8.6824   39.1028   10.8360 C.3     1  UNL1        0.0000
@<TRIPOS>BOND
     1    25    26    3
     2    26    19    1
     3    19    20   ar
     4    19    24   ar
     5    20    21   ar
     6    21    22   ar
     7    22    18    1
     8    22    23   ar
     9    18    14    1
    10    14    15   am
    11    14    17    1
    12    15    16    2
    13    15    13    1
    14     1     2    1
    15     1    12    1
    16     1    13    1
    17     2     3    1
    18     3     4    1
    19     3     5    1
    20     5     6    2
    21     6     7    1
    22     6    12    1
    23     7     8    2
    24     8     9    1
    25     9    10    1
    26     9    11    1
    27    11    27    1
    28    11    12    1
    29    27    28    1
    30    29    30    1
    31    29    35    1
    32    29    28    1
    33    30    31    1
    34    31    32    1
    35    31    36    1
    36    36    37    1
    37    37    38    1
    38    37    39    1
    39    37    40    1
    40    40    41    1
    41    40    42    1
    42    40    43    1
    43    32    33    1
    44    33    34    2
    45    33    35    1
    46    23    24   ar



#	Name:			CHEMBL3896765
#	Creating user name:	trannguyen
#	Creation time:		Fri Mar 18 16:33:25 2022


#	Modifying user name:	trannguyen
#	Modification time:	Fri Mar 18 16:33:25 2022

@<TRIPOS>MOLECULE
CHEMBL3896765
 38 40 0 0 0
SMALL
GASTEIGER

@<TRIPOS>ATOM
      1 C           8.4812   33.6171    4.2744 C.ar    1  UNL1        0.0629
      2 N           8.7205   33.7308    2.9523 N.ar    1  UNL1       -0.2168
      3 C           7.6997   33.5473    2.1218 C.ar    1  UNL1        0.2387
      4 N           6.4302   33.3063    2.4402 N.ar    1  UNL1       -0.2124
      5 C           6.1413   33.2081    3.7531 C.ar    1  UNL1        0.0853
      6 C           7.1731   33.3173    4.7486 C.ar    1  UNL1        0.0311
      7 C           4.6530   32.9883    3.9697 C.ar    1  UNL1        0.0179
      8 C           3.7395   34.0458    4.1152 C.ar    1  UNL1        0.0038
      9 C           2.3945   33.8740    4.4582 C.ar    1  UNL1        0.0297
     10 C           1.8765   32.5986    4.5186 C.ar    1  UNL1        0.1401
     11 F           0.5794   32.4288    4.8040 F       1  UNL1       -0.2042
     12 C           2.6862   31.5100    4.2327 C.ar    1  UNL1        0.0297
     13 C           4.0600   31.7021    3.9679 C.ar    1  UNL1        0.0038
     14 C          10.4875   32.4041    5.3594 C.3     1  UNL1        0.0063
     15 C           9.7630   33.7428    5.1286 C.3     1  UNL1        0.0404
     16 C          10.8850   34.7031    4.6338 C.3     1  UNL1        0.0063
     17 N           8.0131   33.6591    0.7575 N.pl3   1  UNL1       -0.1605
     18 C           6.9915   34.3936   -0.0124 C.3     1  UNL1        0.1420
     19 S           8.4947   32.1670    0.1284 S.O2    1  UNL1        0.0611
     20 C           9.6971   32.6831   -1.0753 C.3     1  UNL1        0.1999
     21 O           9.2534   31.4140    1.1399 O.2     1  UNL1       -0.1541
     22 O           7.4005   31.5644   -0.5601 O.2     1  UNL1       -0.1541
     23 C           6.8611   33.1935    6.1915 C.2     1  UNL1        0.0005
     24 C           6.5928   32.0859    6.8886 C.2     1  UNL1        0.0031
     25 C           6.5433   31.7485    8.3460 C.3     1  UNL1        0.1422
     26 C           7.1963   32.6722    9.3745 C.3     1  UNL1        0.0636
     27 C           6.5120   34.0152    9.4055 C.3     1  UNL1        0.1183
     28 O           6.7785   34.6964   10.6342 O.3     1  UNL1       -0.3842
     29 C           5.0034   33.9280    9.2318 C.3     1  UNL1        0.0906
     30 C           4.3596   32.5593    8.8859 C.3     1  UNL1        0.2379
     31 O           5.2301   31.4524    8.7378 O.3     1  UNL1       -0.3284
     32 H           7.7187   34.5911   10.8591 H       1  UNL1        0.2103
     33 O           3.3801   32.1712    9.8548 O.3     1  UNL1       -0.3265
     34 C           2.9296   30.8214    9.6989 C.3     1  UNL1        0.1905
     35 C           1.5370   30.6926    9.0478 C.3     1  UNL1        0.2251
     36 CL          0.6054   32.1906    9.4168 Cl      1  UNL1       -0.0800
     37 CL          1.6483   30.5376    7.2726 Cl      1  UNL1       -0.0800
     38 CL          0.6308   29.3028    9.7183 Cl      1  UNL1       -0.0800
@<TRIPOS>BOND
     1    14    15    1
     2    15    16    1
     3    15     1    1
     4     1     2   ar
     5     1     6   ar
     6     2     3   ar
     7     3    17    1
     8     3     4   ar
     9    17    18    1
    10    17    19    1
    11    19    20    1
    12    19    21    2
    13    19    22    2
    14     4     5   ar
    15     5     7    1
    16     5     6   ar
    17     7     8   ar
    18     7    13   ar
    19     8     9   ar
    20     9    10   ar
    21    10    11    1
    22    10    12   ar
    23    12    13   ar
    24     6    23    1
    25    23    24    2
    26    24    25    1
    27    25    26    1
    28    25    31    1
    29    26    27    1
    30    27    28    1
    31    27    29    1
    32    28    32    1
    33    29    30    1
    34    30    33    1
    35    30    31    1
    36    33    34    1
    37    34    35    1
    38    35    36    1
    39    35    37    1
    40    35    38    1



#	Name:			CHEMBL3906659
#	Creating user name:	trannguyen
#	Creation time:		Fri Mar 18 16:33:25 2022


#	Modifying user name:	trannguyen
#	Modification time:	Fri Mar 18 16:33:25 2022

@<TRIPOS>MOLECULE
CHEMBL3906659
 43 46 0 0 0
SMALL
GASTEIGER

@<TRIPOS>ATOM
      1 C           7.6848   32.5948    5.0628 C.ar    1  UNL1        0.0311
      2 C           8.5192   32.9223    3.9779 C.ar    1  UNL1        0.0853
      3 N           9.8673   33.0178    4.0995 N.ar    1  UNL1       -0.2124
      4 C          10.3748   32.7781    5.3033 C.ar    1  UNL1        0.2387
      5 N           9.6954   32.4413    6.3950 N.ar    1  UNL1       -0.2168
      6 C           8.3530   32.3251    6.2711 C.ar    1  UNL1        0.0629
      7 C           8.0920   33.1225    2.5694 C.ar    1  UNL1        0.0179
      8 C           8.0972   32.0218    1.6823 C.ar    1  UNL1        0.0038
      9 C           7.7433   32.1563    0.3379 C.ar    1  UNL1        0.0297
     10 C           7.3680   33.4001   -0.1422 C.ar    1  UNL1        0.1401
     11 F           7.0221   33.5357   -1.4282 F       1  UNL1       -0.2042
     12 C           7.3583   34.5077    0.6926 C.ar    1  UNL1        0.0297
     13 C           7.7321   34.3691    2.0341 C.ar    1  UNL1        0.0038
     14 C           7.6510   31.8017    7.5184 C.3     1  UNL1        0.0404
     15 C           8.4354   30.6256    8.1198 C.3     1  UNL1        0.0063
     16 C           7.4589   32.8953    8.5754 C.3     1  UNL1        0.0063
     17 C           5.4429   33.6155    4.8871 C.2     1  UNL1        0.0031
     18 C           6.2124   32.5098    4.9523 C.2     1  UNL1        0.0005
     19 C           3.0962   32.4873    6.7498 C.3     1  UNL1        0.2904
     20 C           2.1385   31.6024    5.9534 C.3     1  UNL1        0.1056
     21 C           2.0260   32.0274    4.4966 C.3     1  UNL1        0.1196
     22 O           1.0709   33.0801    4.3661 O.3     1  UNL1       -0.3841
     23 C           3.3691   32.4852    3.9478 C.3     1  UNL1        0.0637
     24 C           3.9306   33.6492    4.7700 C.3     1  UNL1        0.1432
     25 O           3.3169   33.7421    6.0732 O.3     1  UNL1       -0.3185
     26 H           1.2520   33.7392    5.0649 H       1  UNL1        0.2103
     27 O           2.5169   32.6533    8.0779 O.3     1  UNL1       -0.4493
     28 C           1.2544   29.2292   10.1221 C.ar    1  UNL1        0.1420
     29 C           0.3522   30.0228    9.4353 C.ar    1  UNL1        0.0402
     30 C           0.7941   31.1311    8.7416 C.ar    1  UNL1        0.0433
     31 C           2.1396   31.4889    8.7077 C.ar    1  UNL1        0.1752
     32 C           3.0867   30.6226    9.2983 C.ar    1  UNL1        0.1755
     33 C           2.6237   29.5070   10.0266 C.ar    1  UNL1        0.0769
     34 C           1.9498   27.4895   11.5446 C.3     1  UNL1        0.2525
     35 O           0.8737   28.1471   10.8695 O.3     1  UNL1       -0.4713
     36 O           4.4253   30.9303    9.1933 O.3     1  UNL1       -0.4683
     37 C           5.3156   30.1089    9.9604 C.3     1  UNL1        0.2526
     38 N          11.7733   32.7911    5.4124 N.pl3   1  UNL1       -0.1605
     39 C          12.3389   31.9527    6.4736 C.3     1  UNL1        0.1420
     40 S          12.4452   34.3129    5.1666 S.O2    1  UNL1        0.0611
     41 C          13.9885   34.2305    6.0601 C.3     1  UNL1        0.1999
     42 O          12.7957   34.4159    3.7780 O.2     1  UNL1       -0.1541
     43 O          11.6331   35.3524    5.8041 O.2     1  UNL1       -0.1541
@<TRIPOS>BOND
     1    34    35    1
     2    35    28    1
     3    28    29   ar
     4    28    33   ar
     5    29    30   ar
     6    30    31   ar
     7    31    27    1
     8    31    32   ar
     9    27    19    1
    10    19    20    1
    11    19    25    1
    12    20    21    1
    13    21    23    1
    14    21    22    1
    15    22    26    1
    16    23    24    1
    17    24    17    1
    18    24    25    1
    19    17    18    2
    20    18     1    1
    21     1     2   ar
    22     1     6   ar
    23     2     7    1
    24     2     3   ar
    25     7     8   ar
    26     7    13   ar
    27     8     9   ar
    28     9    10   ar
    29    10    11    1
    30    10    12   ar
    31    12    13   ar
    32     3     4   ar
    33     4    38    1
    34     4     5   ar
    35    38    39    1
    36    38    40    1
    37    40    41    1
    38    40    42    2
    39    40    43    2
    40     5     6   ar
    41     6    14    1
    42    14    15    1
    43    14    16    1
    44    32    36    1
    45    32    33   ar
    46    36    37    1



#	Name:			CHEMBL3963593
#	Creating user name:	trannguyen
#	Creation time:		Fri Mar 18 16:33:25 2022


#	Modifying user name:	trannguyen
#	Modification time:	Fri Mar 18 16:33:25 2022

@<TRIPOS>MOLECULE
CHEMBL3963593
 42 45 0 0 0
SMALL
GASTEIGER

@<TRIPOS>ATOM
      1 C           7.0556   33.5911    4.6204 C.ar    1  UNL1        0.0311
      2 C           6.0271   33.4009    3.6755 C.ar    1  UNL1        0.0853
      3 N           6.2697   33.4491    2.3422 N.ar    1  UNL1       -0.2124
      4 C           7.5217   33.6649    1.9674 C.ar    1  UNL1        0.2387
      5 N           8.5732   33.8129    2.7638 N.ar    1  UNL1       -0.2168
      6 C           8.3493   33.7503    4.0973 C.ar    1  UNL1        0.0629
      7 C           4.5924   33.0822    3.9484 C.ar    1  UNL1        0.0179
      8 C           3.6682   34.1381    4.1410 C.ar    1  UNL1        0.0038
      9 C           2.3195   33.9085    4.4270 C.ar    1  UNL1        0.0297
     10 C           1.8579   32.6069    4.5111 C.ar    1  UNL1        0.1401
     11 F           0.5680   32.3744    4.7814 F       1  UNL1       -0.2042
     12 C           2.7224   31.5420    4.3314 C.ar    1  UNL1        0.0297
     13 C           4.0750   31.7836    4.0718 C.ar    1  UNL1        0.0038
     14 C           9.6360   33.8737    4.9026 C.3     1  UNL1        0.0404
     15 C          10.2078   32.4990    5.2503 C.3     1  UNL1        0.0063
     16 C          10.7109   34.8114    4.3476 C.3     1  UNL1        0.0063
     17 C           6.5751   32.5512    6.7805 C.2     1  UNL1        0.0031
     18 C           6.8138   33.6661    6.0653 C.2     1  UNL1        0.0005
     19 C           5.9951   34.0309   10.0649 C.3     1  UNL1        0.2377
     20 C           6.9065   33.2173   10.9870 C.3     1  UNL1        0.0909
     21 C           7.1084   31.7716   10.5177 C.3     1  UNL1        0.1235
     22 C           7.4043   31.7459    9.0138 C.3     1  UNL1        0.0639
     23 C           6.3251   32.5273    8.2643 C.3     1  UNL1        0.1422
     24 O           6.3728   33.8876    8.6998 O.3     1  UNL1       -0.3284
     25 O           4.6214   33.7293   10.3040 O.3     1  UNL1       -0.3330
     26 C           3.0130   33.7164    8.5479 C.3     1  UNL1        0.0321
     27 C           3.6976   34.5769    9.6056 C.3     1  UNL1        0.1179
     28 C           2.6533   35.1972   10.5310 C.3     1  UNL1        0.0321
     29 O           5.9713   30.9411   10.7654 O.3     1  UNL1       -0.3512
     30 C           5.8530   29.8517    9.8536 C.3     1  UNL1        0.1685
     31 C           4.4520   29.3209    9.9033 C.ar    1  UNL1        0.0073
     32 C           4.2209   27.9541   10.0837 C.ar    1  UNL1       -0.0019
     33 C           2.9169   27.4673   10.1351 C.ar    1  UNL1       -0.0002
     34 C           1.8383   28.3415   10.0004 C.ar    1  UNL1       -0.0000
     35 C           2.0599   29.7041    9.8081 C.ar    1  UNL1       -0.0002
     36 C           3.3630   30.1928    9.7543 C.ar    1  UNL1       -0.0019
     37 N           7.7717   33.6756    0.5856 N.pl3   1  UNL1       -0.1605
     38 C           6.8322   34.4728   -0.2108 C.3     1  UNL1        0.1420
     39 S           8.2162   32.1559    0.0147 S.O2    1  UNL1        0.0611
     40 C           7.6412   32.1791   -1.6733 C.3     1  UNL1        0.1999
     41 O           9.6745   32.1553   -0.0810 O.2     1  UNL1       -0.1541
     42 O           7.5332   31.0967    0.7128 O.2     1  UNL1       -0.1541
@<TRIPOS>BOND
     1    26    27    1
     2    27    28    1
     3    27    25    1
     4    25    19    1
     5    19    20    1
     6    19    24    1
     7    20    21    1
     8    21    22    1
     9    21    29    1
    10    29    30    1
    11    30    31    1
    12    31    32   ar
    13    31    36   ar
    14    32    33   ar
    15    33    34   ar
    16    34    35   ar
    17    35    36   ar
    18    22    23    1
    19    23    17    1
    20    23    24    1
    21    17    18    2
    22    18     1    1
    23     1     2   ar
    24     1     6   ar
    25     2     7    1
    26     2     3   ar
    27     7     8   ar
    28     7    13   ar
    29     8     9   ar
    30     9    10   ar
    31    10    11    1
    32    10    12   ar
    33    12    13   ar
    34     3     4   ar
    35     4    37    1
    36     4     5   ar
    37    37    38    1
    38    37    39    1
    39    39    40    1
    40    39    41    2
    41    39    42    2
    42     5     6   ar
    43     6    14    1
    44    14    15    1
    45    14    16    1



#	Name:			CHEMBL3970138
#	Creating user name:	trannguyen
#	Creation time:		Fri Mar 18 16:33:25 2022


#	Modifying user name:	trannguyen
#	Modification time:	Fri Mar 18 16:33:25 2022

@<TRIPOS>MOLECULE
CHEMBL3970138
 35 36 0 0 0
SMALL
GASTEIGER

@<TRIPOS>ATOM
      1 C           2.0538   32.0674    7.2633 C.3     1  UNL1        0.1730
      2 C           1.7419   32.4230    5.8040 C.3     1  UNL1        0.0483
      3 C           2.5883   31.5805    4.8440 C.3     1  UNL1        0.0253
      4 C           2.2604   31.9456    3.3962 C.3     1  UNL1        0.0048
      5 C           4.0369   31.8120    5.1574 C.2     1  UNL1       -0.0305
      6 C           4.4761   32.1443    6.3858 C.2     1  UNL1       -0.0236
      7 C           5.8625   32.5237    6.5424 C.2     1  UNL1       -0.0091
      8 C           6.3224   33.1279    7.6413 C.2     1  UNL1       -0.0268
      9 C           5.4800   33.4491    8.8439 C.3     1  UNL1        0.0224
     10 C           5.9341   32.5103    9.9712 C.3     1  UNL1        0.0047
     11 C           3.9416   33.4129    8.5480 C.3     1  UNL1        0.0116
     12 C           3.5757   32.1821    7.6306 C.3     1  UNL1        0.0624
     13 O           1.6530   30.6884    7.4701 O.3     1  UNL1       -0.4519
     14 C           0.9191   30.4271    8.5948 C.2     1  UNL1        0.3163
     15 O          -0.1143   30.9819    8.8996 O.2     1  UNL1       -0.2501
     16 C           1.5361   29.2839    9.3966 C.3     1  UNL1        0.0991
     17 C           0.5108   28.7001   10.3706 C.3     1  UNL1        0.0116
     18 C           3.9551   28.7342   10.0460 C.3     1  UNL1        0.0006
     19 C           2.8037   29.7281   10.1397 C.3     1  UNL1        0.0111
     20 C           3.1227   33.4542    9.8695 C.3     1  UNL1        0.0033
     21 C           2.6187   34.8473   10.2975 C.3     1  UNL1        0.0293
     22 C           1.1649   35.1222    9.8494 C.3     1  UNL1        0.1130
     23 O           0.4285   33.8935    9.8178 O.3     1  UNL1       -0.3844
     24 H           1.0144   33.1869    9.4902 H       1  UNL1        0.2103
     25 C           0.4322   36.1071   10.7807 C.3     1  UNL1        0.0589
     26 C           0.6445   37.5905   10.4354 C.3     1  UNL1        0.1221
     27 O           1.8278   38.0809   11.0736 O.3     1  UNL1       -0.3839
     28 H           1.7761   37.7919   12.0126 H       1  UNL1        0.2104
     29 C           0.7990   37.7792    8.9210 C.3     1  UNL1        0.1163
     30 C           2.0317   38.5973    8.5927 C.2     1  UNL1        0.2468
     31 O           2.0759   39.8224    8.6802 O.2     1  UNL1       -0.2730
     32 N           3.0867   37.8356    8.1468 N.am    1  UNL1       -0.1969
     33 O           4.3208   38.4963    7.9578 O.3     1  UNL1       -0.2952
     34 H           3.1281   36.8562    8.4459 H       1  UNL1        0.1822
     35 H           4.0825   39.4362    8.0984 H       1  UNL1        0.2414
@<TRIPOS>BOND
     1    18    19    1
     2    19    16    1
     3    16    17    1
     4    16    14    1
     5    14    15    2
     6    14    13    1
     7    13     1    1
     8     1     2    1
     9     1    12    1
    10     2     3    1
    11     3     4    1
    12     3     5    1
    13     5     6    2
    14     6     7    1
    15     6    12    1
    16     7     8    2
    17     8     9    1
    18     9    10    1
    19     9    11    1
    20    11    20    1
    21    11    12    1
    22    20    21    1
    23    21    22    1
    24    22    23    1
    25    22    25    1
    26    23    24    1
    27    25    26    1
    28    26    27    1
    29    26    29    1
    30    27    28    1
    31    29    30    1
    32    30    31    2
    33    30    32   am
    34    32    33    1
    35    32    34    1
    36    33    35    1



#	Name:			CHEMBL3971241
#	Creating user name:	trannguyen
#	Creation time:		Fri Mar 18 16:33:25 2022


#	Modifying user name:	trannguyen
#	Modification time:	Fri Mar 18 16:33:25 2022

@<TRIPOS>MOLECULE
CHEMBL3971241
 43 46 0 0 0
SMALL
GASTEIGER

@<TRIPOS>ATOM
      1 C           7.1222   33.4290    4.7237 C.ar    1  UNL1        0.0311
      2 C           6.0784   33.3160    3.7913 C.ar    1  UNL1        0.0853
      3 N           6.3119   33.4110    2.4606 N.ar    1  UNL1       -0.2124
      4 C           7.5676   33.6299    2.0816 C.ar    1  UNL1        0.2387
      5 N           8.6332   33.7476    2.8751 N.ar    1  UNL1       -0.2168
      6 C           8.4104   33.6605    4.2013 C.ar    1  UNL1        0.0629
      7 C           4.6362   33.0853    4.1042 C.ar    1  UNL1        0.0179
      8 C           4.1703   31.7723    4.3497 C.ar    1  UNL1        0.0038
      9 C           2.8331   31.5079    4.6659 C.ar    1  UNL1        0.0297
     10 C           1.9335   32.5578    4.7508 C.ar    1  UNL1        0.1401
     11 F           0.6517   32.3134    5.0509 F       1  UNL1       -0.2042
     12 C           2.3468   33.8612    4.5258 C.ar    1  UNL1        0.0297
     13 C           3.6859   34.1198    4.2112 C.ar    1  UNL1        0.0038
     14 C           9.6580   33.7772    5.0747 C.3     1  UNL1        0.0404
     15 C          10.3406   32.4139    5.2265 C.3     1  UNL1        0.0063
     16 C          10.6731   34.8156    4.5651 C.3     1  UNL1        0.0063
     17 C           6.9805   32.2061    6.8438 C.2     1  UNL1        0.0031
     18 C           6.9202   33.3705    6.1748 C.2     1  UNL1        0.0005
     19 C           6.6325   33.0983   10.3605 C.3     1  UNL1        0.2390
     20 C           6.8590   31.7830   11.1018 C.3     1  UNL1        0.1050
     21 C           6.3365   30.5692   10.3199 C.3     1  UNL1        0.1770
     22 C           6.7876   30.6180    8.8519 C.3     1  UNL1        0.0780
     23 C           6.5147   31.9995    8.2612 C.3     1  UNL1        0.1433
     24 O           7.1674   32.9974    9.0492 O.3     1  UNL1       -0.3283
     25 O           5.2564   33.4771   10.3630 O.3     1  UNL1       -0.3304
     26 C           5.0629   34.7493    9.7369 C.3     1  UNL1        0.1448
     27 C           3.3883   33.7789    8.1375 C.3     1  UNL1        0.0027
     28 C           3.6396   34.8321    9.2040 C.3     1  UNL1        0.0322
     29 O           4.8960   30.5131   10.3468 O.3     1  UNL1       -0.4489
     30 C           4.3573   29.2836   10.1238 C.2     1  UNL1        0.3426
     31 O           4.9203   28.2141   10.2240 O.2     1  UNL1       -0.2448
     32 C           2.9187   29.4295    9.8421 C.ar    1  UNL1        0.0948
     33 C           2.4018   30.3785    8.9599 C.ar    1  UNL1        0.0096
     34 C           1.0208   30.4686    8.7985 C.ar    1  UNL1        0.0209
     35 C           0.2135   29.6041    9.5240 C.ar    1  UNL1        0.0989
     36 N           0.6877   28.6610   10.3678 N.ar    1  UNL1       -0.2421
     37 C           2.0351   28.5906   10.5047 C.ar    1  UNL1        0.1053
     38 N           7.7963   33.6524    0.6923 N.pl3   1  UNL1       -0.1605
     39 C           6.7604   34.3835   -0.0573 C.3     1  UNL1        0.1420
     40 S           8.2398   32.1314    0.1143 S.O2    1  UNL1        0.0611
     41 C           7.7097   32.2367   -1.5822 C.3     1  UNL1        0.1999
     42 O           9.6897   32.0095    0.0708 O.2     1  UNL1       -0.1541
     43 O           7.4344   31.1225    0.7594 O.2     1  UNL1       -0.1541
@<TRIPOS>BOND
     1    27    28    1
     2    28    26    1
     3    26    25    1
     4    25    19    1
     5    19    20    1
     6    19    24    1
     7    20    21    1
     8    21    22    1
     9    21    29    1
    10    29    30    1
    11    30    31    2
    12    30    32    1
    13    32    33   ar
    14    32    37   ar
    15    33    34   ar
    16    34    35   ar
    17    35    36   ar
    18    36    37   ar
    19    22    23    1
    20    23    17    1
    21    23    24    1
    22    17    18    2
    23    18     1    1
    24     1     2   ar
    25     1     6   ar
    26     2     7    1
    27     2     3   ar
    28     7     8   ar
    29     7    13   ar
    30     8     9   ar
    31     9    10   ar
    32    10    11    1
    33    10    12   ar
    34    12    13   ar
    35     3     4   ar
    36     4    38    1
    37     4     5   ar
    38    38    39    1
    39    38    40    1
    40    40    41    1
    41    40    42    2
    42    40    43    2
    43     5     6   ar
    44     6    14    1
    45    14    15    1
    46    14    16    1



#	Name:			CHEMBL3971439
#	Creating user name:	trannguyen
#	Creation time:		Fri Mar 18 16:33:25 2022


#	Modifying user name:	trannguyen
#	Modification time:	Fri Mar 18 16:33:25 2022

@<TRIPOS>MOLECULE
CHEMBL3971439
 36 38 0 0 0
SMALL
GASTEIGER

@<TRIPOS>ATOM
      1 C           7.1385   33.6357    4.4970 C.ar    1  UNL1        0.0311
      2 C           6.0974   33.4289    3.5730 C.ar    1  UNL1        0.0853
      3 N           6.3314   33.4842    2.2370 N.ar    1  UNL1       -0.2124
      4 C           7.5874   33.7325    1.8491 C.ar    1  UNL1        0.2387
      5 N           8.6442   33.8674    2.6388 N.ar    1  UNL1       -0.2168
      6 C           8.4219   33.8287    3.9673 C.ar    1  UNL1        0.0629
      7 C           4.6656   33.1233    3.9059 C.ar    1  UNL1        0.0179
      8 C           4.2050   31.7857    3.9782 C.ar    1  UNL1        0.0038
      9 C           2.8647   31.4732    4.2564 C.ar    1  UNL1        0.0297
     10 C           1.9579   32.4945    4.4890 C.ar    1  UNL1        0.1401
     11 F           0.6775   32.2067    4.7550 F       1  UNL1       -0.2042
     12 C           2.3648   33.8154    4.4392 C.ar    1  UNL1        0.0297
     13 C           3.6966   34.1203    4.1327 C.ar    1  UNL1        0.0038
     14 C           9.6602   33.9804    4.8456 C.3     1  UNL1        0.0404
     15 C          10.3454   32.6313    5.0854 C.3     1  UNL1        0.0063
     16 C          10.6664   34.9665    4.2405 C.3     1  UNL1        0.0063
     17 C           6.7324   32.5572    6.6685 C.2     1  UNL1        0.0031
     18 C           6.9467   33.6658    5.9465 C.2     1  UNL1        0.0005
     19 C           5.5211   33.8239    9.8720 C.3     1  UNL1        0.2378
     20 C           6.5617   33.3392   10.8875 C.3     1  UNL1        0.0906
     21 C           7.3213   32.0844   10.4474 C.3     1  UNL1        0.1183
     22 O           6.5454   30.9258   10.7417 O.3     1  UNL1       -0.3842
     23 C           7.6793   32.0977    8.9626 C.3     1  UNL1        0.0636
     24 C           6.4665   32.5297    8.1468 C.3     1  UNL1        0.1422
     25 O           6.0828   33.8428    8.5617 O.3     1  UNL1       -0.3284
     26 H           7.1392   30.1554   10.7202 H       1  UNL1        0.2103
     27 O           4.3179   33.0581    9.9354 O.3     1  UNL1       -0.3304
     28 C           3.2787   33.6399    9.1451 C.3     1  UNL1        0.1448
     29 C           3.1536   31.4496    7.9258 C.3     1  UNL1        0.0027
     30 C           2.3629   32.5379    8.6324 C.3     1  UNL1        0.0322
     31 N           7.8350   33.7558    0.4642 N.pl3   1  UNL1       -0.1605
     32 C           6.8767   34.5309   -0.3329 C.3     1  UNL1        0.1420
     33 S           8.2950   32.2579   -0.1469 S.O2    1  UNL1        0.0611
     34 C           7.7382   32.3190   -1.8423 C.3     1  UNL1        0.1999
     35 O           9.7404   32.2112   -0.1766 O.2     1  UNL1       -0.1541
     36 O           7.5471   31.1977    0.5095 O.2     1  UNL1       -0.1541
@<TRIPOS>BOND
     1    29    30    1
     2    30    28    1
     3    28    27    1
     4    27    19    1
     5    19    20    1
     6    19    25    1
     7    20    21    1
     8    21    23    1
     9    21    22    1
    10    22    26    1
    11    23    24    1
    12    24    17    1
    13    24    25    1
    14    17    18    2
    15    18     1    1
    16     1     2   ar
    17     1     6   ar
    18     2     7    1
    19     2     3   ar
    20     7     8   ar
    21     7    13   ar
    22     8     9   ar
    23     9    10   ar
    24    10    11    1
    25    10    12   ar
    26    12    13   ar
    27     3     4   ar
    28     4    31    1
    29     4     5   ar
    30    31    32    1
    31    31    33    1
    32    33    34    1
    33    33    35    2
    34    33    36    2
    35     5     6   ar
    36     6    14    1
    37    14    15    1
    38    14    16    1



#	Name:			CHEMBL3985556
#	Creating user name:	trannguyen
#	Creation time:		Fri Mar 18 16:33:25 2022


#	Modifying user name:	trannguyen
#	Modification time:	Fri Mar 18 16:33:25 2022

@<TRIPOS>MOLECULE
CHEMBL3985556
 42 45 0 0 0
SMALL
GASTEIGER

@<TRIPOS>ATOM
      1 C           8.4035   33.7817    4.0309 C.ar    1  UNL1        0.0629
      2 N           8.6178   33.8142    2.6937 N.ar    1  UNL1       -0.2168
      3 C           7.5626   33.6189    1.9121 C.ar    1  UNL1        0.2387
      4 N           6.3104   33.4006    2.3141 N.ar    1  UNL1       -0.2124
      5 C           6.0869   33.3267    3.6510 C.ar    1  UNL1        0.0853
      6 C           7.1385   33.5093    4.5826 C.ar    1  UNL1        0.0311
      7 C           4.6375   33.0702    3.9666 C.ar    1  UNL1        0.0179
      8 C           3.7458   34.1440    4.2243 C.ar    1  UNL1        0.0038
      9 C           2.3950   33.9362    4.5497 C.ar    1  UNL1        0.0297
     10 C           1.9015   32.6444    4.6149 C.ar    1  UNL1        0.1401
     11 F           0.6204   32.4323    4.9440 F       1  UNL1       -0.2042
     12 C           2.7226   31.5678    4.3254 C.ar    1  UNL1        0.0297
     13 C           4.0664   31.7841    3.9869 C.ar    1  UNL1        0.0038
     14 C          10.5086   32.8061    4.9837 C.3     1  UNL1        0.0063
     15 C           9.6515   34.0725    4.8562 C.3     1  UNL1        0.0404
     16 C          10.4711   35.2174    4.2409 C.3     1  UNL1        0.0063
     17 N           7.8205   33.6385    0.5219 N.pl3   1  UNL1       -0.1605
     18 C           6.8242   34.3746   -0.2647 C.3     1  UNL1        0.1420
     19 S           8.2424   32.1234   -0.0883 S.O2    1  UNL1        0.0611
     20 C           7.6370   32.2065   -1.7692 C.3     1  UNL1        0.1999
     21 O           9.7008   32.0013   -0.1604 O.2     1  UNL1       -0.1541
     22 O           7.4677   31.1245    0.5710 O.2     1  UNL1       -0.1541
     23 C           6.9337   33.4683    6.0466 C.2     1  UNL1        0.0005
     24 C           7.5653   32.5614    6.8087 C.2     1  UNL1        0.0031
     25 C           7.6619   32.5464    8.3193 C.3     1  UNL1        0.1432
     26 C           7.2832   33.8119    9.0849 C.3     1  UNL1        0.0637
     27 C           5.7732   34.0113    9.0895 C.3     1  UNL1        0.1196
     28 O           5.4306   35.1213    9.9130 O.3     1  UNL1       -0.3841
     29 C           5.0924   32.7550    9.6269 C.3     1  UNL1        0.1056
     30 C           5.5100   31.5446    8.7897 C.3     1  UNL1        0.2905
     31 O           6.9355   31.4319    8.8416 O.3     1  UNL1       -0.3185
     32 H           5.7352   35.9324    9.4695 H       1  UNL1        0.2103
     33 O           4.8655   30.3764    9.3284 O.3     1  UNL1       -0.4478
     34 C           3.4978   30.3037    9.2246 C.ar    1  UNL1        0.1959
     35 C           2.8456   29.5146   10.1779 C.ar    1  UNL1        0.1784
     36 F           3.5554   28.8747   11.1196 F       1  UNL1       -0.2008
     37 C           1.4597   29.3547   10.1747 C.ar    1  UNL1        0.0625
     38 C           0.7075   29.9934    9.2006 C.ar    1  UNL1        0.1448
     39 F          -0.6250   29.8634    9.1968 F       1  UNL1       -0.2040
     40 C           1.3171   30.7787    8.2373 C.ar    1  UNL1        0.0625
     41 C           2.6998   30.9447    8.2708 C.ar    1  UNL1        0.1784
     42 F           3.2253   31.7767    7.3649 F       1  UNL1       -0.2008
@<TRIPOS>BOND
     1    14    15    1
     2    15    16    1
     3    15     1    1
     4     1     2   ar
     5     1     6   ar
     6     2     3   ar
     7     3    17    1
     8     3     4   ar
     9    17    18    1
    10    17    19    1
    11    19    20    1
    12    19    21    2
    13    19    22    2
    14     4     5   ar
    15     5     7    1
    16     5     6   ar
    17     7     8   ar
    18     7    13   ar
    19     8     9   ar
    20     9    10   ar
    21    10    11    1
    22    10    12   ar
    23    12    13   ar
    24     6    23    1
    25    23    24    2
    26    24    25    1
    27    25    26    1
    28    25    31    1
    29    26    27    1
    30    27    28    1
    31    27    29    1
    32    28    32    1
    33    29    30    1
    34    30    33    1
    35    30    31    1
    36    33    34    1
    37    34    35   ar
    38    34    41   ar
    39    35    36    1
    40    35    37   ar
    41    37    38   ar
    42    38    39    1
    43    38    40   ar
    44    40    41   ar
    45    41    42    1



#	Name:			CHEMBL39102
#	Creating user name:	trannguyen
#	Creation time:		Fri Mar 18 16:33:25 2022


#	Modifying user name:	trannguyen
#	Modification time:	Fri Mar 18 16:33:25 2022

@<TRIPOS>MOLECULE
CHEMBL39102
 31 32 0 0 0
SMALL
GASTEIGER

@<TRIPOS>ATOM
      1 C           4.0476   32.6968    5.8054 C.ar    1  UNL1        0.0229
      2 C           3.6417   32.3413    4.5004 C.ar    1  UNL1        0.0574
      3 CL          1.9797   32.3351    4.0198 Cl      1  UNL1       -0.0824
      4 C           4.5712   31.9571    3.5321 C.ar    1  UNL1        0.0227
      5 C           5.9162   31.9070    3.8589 C.ar    1  UNL1        0.0615
      6 CL          7.0671   31.3769    2.6943 Cl      1  UNL1       -0.0821
      7 C           6.3483   32.2722    5.1290 C.ar    1  UNL1        0.0480
      8 C           5.4309   32.6858    6.1055 C.ar    1  UNL1        0.1367
      9 C           3.0244   33.0057    6.8846 C.3     1  UNL1        0.0405
     10 C           2.4503   31.7243    7.4868 C.3     1  UNL1        0.0917
     11 P           1.3993   31.9829    8.9111 P.3     1  UNL1        0.2224
     12 O          -0.0373   31.6297    8.6947 O.2     1  UNL1       -0.2896
     13 O           1.5589   33.5540    9.2299 O.3     1  UNL1       -0.3427
     14 H           0.7721   33.9594    9.6543 H       1  UNL1        0.2176
     15 C           2.1823   31.1975   10.3135 C.3     1  UNL1        0.1165
     16 C           2.6542   29.7554   10.1366 C.3     1  UNL1        0.1313
     17 O           3.8883   29.5577   10.8579 O.3     1  UNL1       -0.3833
     18 H           3.9010   30.1705   11.6230 H       1  UNL1        0.2104
     19 C           1.6692   28.6697   10.5769 C.3     1  UNL1        0.1390
     20 O           2.1118   26.6597   11.7878 O.2     1  UNL1       -0.2502
     21 C           2.3593   27.3663   10.8188 C.2     1  UNL1        0.3163
     22 O           3.3190   27.0617    9.9314 O.3     1  UNL1       -0.4801
     23 H           3.3576   27.7277    9.1960 H       1  UNL1        0.2951
     24 O           5.8079   33.0755    7.3743 O.3     1  UNL1       -0.4709
     25 C           6.1645   32.0175    8.2721 C.3     1  UNL1        0.2320
     26 C           7.6579   31.8247    8.3391 C.ar    1  UNL1        0.0212
     27 C           8.2592   30.6813    7.7950 C.ar    1  UNL1       -0.0007
     28 C           9.6367   30.4857    7.9120 C.ar    1  UNL1       -0.0002
     29 C          10.4238   31.4311    8.5675 C.ar    1  UNL1       -0.0000
     30 C           9.8361   32.5729    9.1082 C.ar    1  UNL1       -0.0002
     31 C           8.4604   32.7713    8.9914 C.ar    1  UNL1       -0.0007
@<TRIPOS>BOND
     1    20    21    2
     2    21    22    1
     3    21    19    1
     4    22    23    1
     5    16    17    1
     6    16    15    1
     7    16    19    1
     8    17    18    1
     9    15    11    1
    10    11    12    2
    11    11    13    1
    12    11    10    1
    13    13    14    1
    14    10     9    1
    15     9     1    1
    16     1     2   ar
    17     1     8   ar
    18     2     3    1
    19     2     4   ar
    20     4     5   ar
    21     5     6    1
    22     5     7   ar
    23     7     8   ar
    24     8    24    1
    25    24    25    1
    26    25    26    1
    27    26    27   ar
    28    26    31   ar
    29    27    28   ar
    30    28    29   ar
    31    29    30   ar
    32    30    31   ar



#	Name:			CHEMBL1006
#	Creating user name:	trannguyen
#	Creation time:		Tue Feb  8 18:26:14 2022


#	Modifying user name:	trannguyen
#	Modification time:	Tue Feb  8 18:26:14 2022

@<TRIPOS>MOLECULE
CHEMBL1006
 17 16 0 0 0
SMALL
GASTEIGER

@<TRIPOS>ATOM
      1 C           1.3401   30.6792    7.7392 C.3     1  UNL1        0.0809
      2 N           1.5403   32.0806    7.3339 N.3     1  UNL1       -0.2967
      3 H           0.8882   32.3171    6.5862 H       1  UNL1        0.1233
      4 C           2.9166   32.2900    6.8665 C.3     1  UNL1        0.0700
      5 C           3.0983   31.9206    5.3866 C.3     1  UNL1        0.0339
      6 N           1.3657   33.4885    4.5808 N.3     1  UNL1       -0.3211
      7 C           2.7594   33.0653    4.4296 C.3     1  UNL1        0.0666
      8 H           1.2037   34.3032    3.9880 H       1  UNL1        0.1189
      9 H           1.2014   33.8033    5.5362 H       1  UNL1        0.1189
     10 C           1.2066   30.5530    9.2618 C.3     1  UNL1        0.0859
     11 S           2.5912   29.6361    9.9956 S.3     1  UNL1       -0.0297
     12 P           1.7475   28.0542   11.0160 P.3     1  UNL1        0.3869
     13 O           2.0428   28.0376   12.4866 O.2     1  UNL1       -0.2462
     14 O           0.1648   27.9726   10.7823 O.3     1  UNL1       -0.3163
     15 O           2.1994   26.6547   10.3847 O.3     1  UNL1       -0.3163
     16 H          -0.2752   27.4178   11.4509 H       1  UNL1        0.2205
     17 H           2.1178   25.9275   11.0283 H       1  UNL1        0.2205
@<TRIPOS>BOND
     1     6     7    1
     2     6     8    1
     3     6     9    1
     4     7     5    1
     5     5     4    1
     6     4     2    1
     7     2     1    1
     8     2     3    1
     9     1    10    1
    10    10    11    1
    11    11    12    1
    12    12    13    2
    13    12    14    1
    14    12    15    1
    15    14    16    1
    16    15    17    1
#	Name:			CHEMBL1009
#	Creating user name:	trannguyen
#	Creation time:		Tue Feb  8 18:26:14 2022


#	Modifying user name:	trannguyen
#	Modification time:	Tue Feb  8 18:26:14 2022

@<TRIPOS>MOLECULE
CHEMBL1009
 19 19 0 0 0
SMALL
GASTEIGER

@<TRIPOS>ATOM
      1 C           2.7747   30.2158    9.6664 C.ar    1  UNL1       -0.0171
      2 C           3.8625   29.3411    9.8388 C.ar    1  UNL1       -0.0009
      3 C           3.6836   28.0713   10.3980 C.ar    1  UNL1        0.0394
      4 C           2.4108   27.6752   10.7850 C.ar    1  UNL1        0.1675
      5 O           2.1715   26.4509   11.3447 O.3     1  UNL1       -0.5029
      6 C           1.3282   28.5327   10.6148 C.ar    1  UNL1        0.1672
      7 O           0.0790   28.1389   11.0015 O.3     1  UNL1       -0.5029
      8 C           1.4964   29.7955   10.0618 C.ar    1  UNL1        0.0356
      9 H           3.0163   25.9699   11.3870 H       1  UNL1        0.2923
     10 H           0.2135   27.2487   11.3851 H       1  UNL1        0.2923
     11 C           2.9873   31.5942    9.0774 C.3     1  UNL1        0.0533
     12 N           4.1545   32.8449    7.1936 N.3     1  UNL1       -0.3131
     13 CA          3.3623   31.6346    7.5859 C.3     1  UNL1        0.1553
     14 H1          5.0877   32.7460    7.6054 H       1  UNL1        0.1193
     15 H2          3.7598   33.6581    7.6804 H       1  UNL1        0.1193
     16 C           2.1283   31.5315    6.6771 C.2     1  UNL1        0.3283
     17 O           2.1059   31.0095    5.5694 O.2     1  UNL1       -0.2488
     18 OXT         1.0478   32.1317    7.2404 O.3     1  UNL1       -0.4793
     19 HXT         1.3698   32.5014    8.1021 H       1  UNL1        0.2951
@<TRIPOS>BOND
     1    12    13    1
     2    12    14    1
     3    12    15    1
     4    13    11    1
     5    13    16    1
     6    11     1    1
     7     1     2   ar
     8     1     8   ar
     9     2     3   ar
    10     3     4   ar
    11     4     5    1
    12     4     6   ar
    13     5     9    1
    14     6     7    1
    15     6     8   ar
    16     7    10    1
    17    16    17    2
    18    16    18    1
    19    18    19    1
#	Name:			CHEMBL101168
#	Creating user name:	trannguyen
#	Creation time:		Tue Feb  8 18:26:14 2022


#	Modifying user name:	trannguyen
#	Modification time:	Tue Feb  8 18:26:14 2022

@<TRIPOS>MOLECULE
CHEMBL101168
 12 13 0 0 0
SMALL
GASTEIGER

@<TRIPOS>ATOM
      1 N          -0.5602   28.6567   10.4447 N.pl3   1  UNL1       -0.2805
      2 N           0.8037   28.4723   10.7534 N.ar    1  UNL1       -0.1655
      3 N           1.2396   27.5937   11.6686 N.ar    1  UNL1       -0.0461
      4 N           2.5670   27.6593   11.6959 N.ar    1  UNL1       -0.1273
      5 C           2.9578   28.6194   10.8021 C.ar    1  UNL1        0.1236
      6 C           4.2355   29.0773   10.4494 C.ar    1  UNL1        0.0226
      7 C           4.3378   30.1061    9.5025 C.ar    1  UNL1        0.0017
      8 C           3.1957   30.6659    8.9248 C.ar    1  UNL1        0.0017
      9 C           1.9141   30.2123    9.2565 C.ar    1  UNL1        0.0223
     10 C           1.8385   29.1781   10.1991 C.ar    1  UNL1        0.1191
     11 H          -1.1101   28.2306   11.1851 H       1  UNL1        0.1642
     12 H          -0.7989   29.6440   10.4523 H       1  UNL1        0.1642
@<TRIPOS>BOND
     1     1     2    1
     2     1    11    1
     3     1    12    1
     4     2     3   ar
     5     2    10   ar
     6     3     4   ar
     7     4     5   ar
     8     5     6   ar
     9     5    10   ar
    10     6     7   ar
    11     7     8   ar
    12     8     9   ar
    13     9    10   ar
#	Name:			CHEMBL101600
#	Creating user name:	trannguyen
#	Creation time:		Tue Feb  8 18:26:14 2022


#	Modifying user name:	trannguyen
#	Modification time:	Tue Feb  8 18:26:14 2022

@<TRIPOS>MOLECULE
CHEMBL101600
 37 38 0 0 0
SMALL
GASTEIGER

@<TRIPOS>ATOM
      1 C           5.9690   32.3956    5.9998 C.ar    1  UNL1        0.0288
      2 C           6.6246   32.3269    4.7367 C.ar    1  UNL1       -0.0040
      3 C           6.0091   32.7158    3.5416 C.ar    1  UNL1       -0.0222
      4 C           6.7173   32.6787    2.2210 C.3     1  UNL1        0.0310
      5 C           4.7141   33.1783    3.5866 C.ar    1  UNL1       -0.0055
      6 C           3.9895   33.2993    4.7945 C.ar    1  UNL1        0.0115
      7 C           2.6417   33.9631    4.5644 C.3     1  UNL1        0.0342
      8 C           4.5936   32.8555    6.0277 C.ar    1  UNL1        0.1321
      9 C           6.9115   32.0036    7.1986 C.3     1  UNL1        0.0969
     10 C           8.3694   31.5772    6.7763 C.3     1  UNL1        0.0223
     11 C           9.3893   32.7551    6.7021 C.3     1  UNL1        0.0020
     12 C           9.9496   33.2055    8.0548 C.3     1  UNL1        0.0001
     13 C          10.5849   32.0334    8.7888 C.3     1  UNL1        0.0000
     14 C           9.5444   30.9381    8.9841 C.3     1  UNL1        0.0001
     15 C           9.0026   30.4558    7.6362 C.3     1  UNL1        0.0020
     16 C           6.5490   33.0936    9.5111 C.2     1  UNL1        0.2217
     17 O           5.7992   32.2163    9.9598 O.2     1  UNL1       -0.2751
     18 N           6.9844   33.0798    8.1954 N.am    1  UNL1       -0.3021
     19 H           7.5342   33.8780    7.8769 H       1  UNL1        0.1497
     20 C           7.2353   34.1738   10.4406 C.3     1  UNL1        0.0689
     21 C           6.1078   34.8063   11.2899 C.3     1  UNL1        0.0091
     22 C           7.9017   35.3311    9.6415 C.3     1  UNL1        0.0091
     23 C           9.5928   34.3390   11.5514 C.3     1  UNL1        0.0005
     24 C           8.2777   33.5619   11.3927 C.3     1  UNL1        0.0086
     25 O           3.9456   32.8133    7.2644 O.3     1  UNL1       -0.4734
     26 C           3.2346   31.6091    7.6191 C.3     1  UNL1        0.2344
     27 C           1.6807   31.6335    7.5473 C.3     1  UNL1        0.1564
     28 O           1.2386   30.8564    6.4145 O.3     1  UNL1       -0.3806
     29 H           1.7584   30.0380    6.3697 H       1  UNL1        0.2105
     30 C           1.0757   31.0506    8.8290 C.3     1  UNL1        0.0627
     31 C           1.9892   30.2299    9.7791 C.3     1  UNL1        0.1186
     32 O           1.9883   30.9012   11.0277 O.3     1  UNL1       -0.3840
     33 H           1.2671   30.5281   11.5629 H       1  UNL1        0.2104
     34 C           1.6455   28.7541    9.9213 C.3     1  UNL1        0.0710
     35 C           2.1901   27.7631   10.9892 C.2     1  UNL1        0.0528
     36 O           2.8591   26.8346   10.3923 O.co2   1  UNL1       -0.5491
     37 O           1.9956   27.9901   12.1879 O.co2   1  UNL1       -0.5491
@<TRIPOS>UNITY_ATOM_ATTR
36 1
charge -1
@<TRIPOS>BOND
     1    23    24    1
     2    24    20    1
     3    20    21    1
     4    20    22    1
     5    20    16    1
     6    16    17    2
     7    16    18   am
     8    18     9    1
     9    18    19    1
    10     9     1    1
    11     9    10    1
    12     1     2   ar
    13     1     8   ar
    14     2     3   ar
    15     3     4    1
    16     3     5   ar
    17     5     6   ar
    18     6     7    1
    19     6     8   ar
    20     8    25    1
    21    25    26    1
    22    26    27    1
    23    27    28    1
    24    27    30    1
    25    28    29    1
    26    30    31    1
    27    31    32    1
    28    31    34    1
    29    32    33    1
    30    34    35    1
    31    35    36   ar
    32    35    37   ar
    33    10    11    1
    34    10    15    1
    35    11    12    1
    36    12    13    1
    37    13    14    1
    38    14    15    1
#	Name:			CHEMBL1016
#	Creating user name:	trannguyen
#	Creation time:		Tue Feb  8 18:26:14 2022


#	Modifying user name:	trannguyen
#	Modification time:	Tue Feb  8 18:26:14 2022

@<TRIPOS>MOLECULE
CHEMBL1016
 35 39 0 0 0
SMALL
GASTEIGER

@<TRIPOS>ATOM
      1 C           6.6750   32.9720    8.8743 C.ar    1  UNL1        0.0005
      2 C           5.4632   32.8234    8.1969 C.ar    1  UNL1       -0.0024
      3 C           4.5835   31.7593    8.4767 C.ar    1  UNL1       -0.0003
      4 C           4.8541   30.7807    9.4570 C.ar    1  UNL1        0.0001
      5 C           6.0283   30.9946   10.1911 C.ar    1  UNL1       -0.0003
      6 C           6.9337   32.0377    9.8852 C.ar    1  UNL1       -0.0024
      7 C           3.9013   29.6447    9.7248 C.ar    1  UNL1        0.0030
      8 C           4.4738   28.3613    9.9614 C.ar    1  UNL1        0.0001
      9 C           3.7183   27.2012   10.1700 C.ar    1  UNL1        0.0000
     10 C           2.3413   27.2686   10.1478 C.ar    1  UNL1        0.0001
     11 C           1.7350   28.4995    9.9335 C.ar    1  UNL1        0.0031
     12 C           2.4748   29.6973    9.7254 C.ar    1  UNL1        0.0371
     13 C           1.6091   30.8622    9.4918 C.ar    1  UNL1        0.1806
     14 N           0.7302   30.9736    8.5052 N.ar    1  UNL1       -0.1084
     15 N           0.0679   32.1573    8.6853 N.ar    1  UNL1       -0.0229
     16 N           0.4994   32.7732    9.7736 N.ar    1  UNL1       -0.0464
     17 N           1.4351   31.9593   10.2911 N.ar    1  UNL1       -0.2388
     18 H           1.8764   32.2094   11.1652 H       1  UNL1        0.1923
     19 C           7.7249   33.9921    8.4618 C.3     1  UNL1        0.1372
     20 C           9.1607   33.1381    6.6061 C.ar    1  UNL1        0.3009
     21 N          10.1392   32.2924    6.4240 N.ar    1  UNL1       -0.1942
     22 C          10.6815   32.0995    7.6530 C.ar    1  UNL1        0.1019
     23 C          11.7509   31.2419    7.9531 C.ar    1  UNL1        0.0207
     24 C          12.2055   31.1400    9.2590 C.ar    1  UNL1        0.0019
     25 C          11.6204   31.9229   10.2466 C.ar    1  UNL1        0.0080
     26 C          10.5762   32.8440    9.9737 C.ar    1  UNL1        0.0928
     27 C          10.0546   32.8723    8.6452 C.ar    1  UNL1        0.0880
     28 N           8.9993   33.4812    7.9440 N.ar    1  UNL1       -0.2774
     29 C          10.0899   33.7031   11.0807 C.2     1  UNL1        0.3395
     30 O           9.6444   33.2838   12.1165 O.2     1  UNL1       -0.2450
     31 O          10.1910   35.0404   10.8442 O.3     1  UNL1       -0.4771
     32 H          10.4183   35.3093    9.9308 H       1  UNL1        0.2954
     33 O           8.3771   33.5704    5.6166 O.3     1  UNL1       -0.4478
     34 C           6.4928   32.3125    4.7543 C.3     1  UNL1        0.0513
     35 C           7.9934   32.5464    4.6891 C.3     1  UNL1        0.2088
@<TRIPOS>BOND
     1    34    35    1
     2    35    33    1
     3    33    20    1
     4    20    21   ar
     5    20    28   ar
     6    21    22   ar
     7    22    23   ar
     8    22    27   ar
     9    23    24   ar
    10    24    25   ar
    11    25    26   ar
    12    26    29    1
    13    26    27   ar
    14    29    30    2
    15    29    31    1
    16    31    32    1
    17    27    28   ar
    18    28    19    1
    19    19     1    1
    20     1     2   ar
    21     1     6   ar
    22     2     3   ar
    23     3     4   ar
    24     4     7    1
    25     4     5   ar
    26     7     8   ar
    27     7    12   ar
    28     8     9   ar
    29     9    10   ar
    30    10    11   ar
    31    11    12   ar
    32    12    13    1
    33    13    14   ar
    34    13    17   ar
    35    14    15   ar
    36    15    16   ar
    37    16    17   ar
    38    17    18    1
    39     5     6   ar
#	Name:			CHEMBL101824
#	Creating user name:	trannguyen
#	Creation time:		Tue Feb  8 18:26:14 2022


#	Modifying user name:	trannguyen
#	Modification time:	Tue Feb  8 18:26:14 2022

@<TRIPOS>MOLECULE
CHEMBL101824
 27 29 0 0 0
SMALL
GASTEIGER

@<TRIPOS>ATOM
      1 C           4.7215   44.1028   -4.4286 C.3     1  UNL1        0.0310
      2 C           5.1159   42.6674   -4.6111 C.ar    1  UNL1       -0.0222
      3 C           5.5566   41.9685   -3.4950 C.ar    1  UNL1       -0.0055
      4 C           5.9537   40.6170   -3.5451 C.ar    1  UNL1        0.0115
      5 C           6.4388   40.1109   -2.2114 C.3     1  UNL1        0.0342
      6 C           5.8729   39.9256   -4.7808 C.ar    1  UNL1        0.1318
      7 C           5.4549   40.6449   -5.9566 C.ar    1  UNL1        0.0259
      8 C           5.0423   41.9959   -5.8301 C.ar    1  UNL1       -0.0044
      9 C           5.4130   39.9837   -7.3517 C.3     1  UNL1        0.1049
     10 CL          3.9538   40.6319   -8.2014 Cl      1  UNL1       -0.1101
     11 C           6.6905   40.1235   -8.2782 C.3     1  UNL1        0.0193
     12 C           7.7585   41.0198   -7.6188 C.3     1  UNL1        0.0016
     13 C           9.0707   41.1407   -8.4085 C.3     1  UNL1        0.0001
     14 C           9.1374   40.2567   -9.6456 C.3     1  UNL1        0.0000
     15 C           8.7107   38.8368   -9.3153 C.3     1  UNL1        0.0001
     16 C           7.3462   38.7553   -8.6122 C.3     1  UNL1        0.0016
     17 O           6.2301   38.6143   -5.0168 O.3     1  UNL1       -0.4722
     18 C           7.6034   38.2117   -5.0629 C.3     1  UNL1        0.2486
     19 C           7.7511   36.6824   -5.2676 C.3     1  UNL1        0.2146
     20 C           8.1638   35.9313   -4.0090 C.3     1  UNL1        0.0773
     21 C           8.1318   34.4154   -4.2266 C.3     1  UNL1        0.1254
     22 O           7.2779   33.8318   -3.2427 O.3     1  UNL1       -0.3838
     23 C           7.6839   34.0038   -5.6195 C.3     1  UNL1        0.1388
     24 C           6.4864   34.8057   -6.0856 C.2     1  UNL1        0.3195
     25 O           5.6047   34.3225   -6.7643 O.2     1  UNL1       -0.2500
     26 O           6.5238   36.1349   -5.7857 O.3     1  UNL1       -0.4482
     27 H           7.4274   32.8695   -3.2348 H       1  UNL1        0.2104
@<TRIPOS>BOND
     1     1     2    1
     2     2     3   ar
     3     2     8   ar
     4     3     4   ar
     5     4     5    1
     6     4     6   ar
     7     6    17    1
     8     6     7   ar
     9    17    18    1
    10    18    19    1
    11    19    20    1
    12    19    26    1
    13    20    21    1
    14    21    23    1
    15    21    22    1
    16    22    27    1
    17    23    24    1
    18    24    25    2
    19    24    26    1
    20     7     9    1
    21     7     8   ar
    22     9    10    1
    23     9    11    1
    24    11    12    1
    25    11    16    1
    26    12    13    1
    27    13    14    1
    28    14    15    1
    29    15    16    1
#	Name:			CHEMBL101831
#	Creating user name:	trannguyen
#	Creation time:		Tue Feb  8 18:26:14 2022


#	Modifying user name:	trannguyen
#	Modification time:	Tue Feb  8 18:26:14 2022

@<TRIPOS>MOLECULE
CHEMBL101831
 51 54 0 0 0
SMALL
GASTEIGER

@<TRIPOS>ATOM
      1 C           6.4413   32.4826    4.0541 C.ar    1  UNL1        0.0258
      2 C           6.9747   32.7113    5.3139 C.ar    1  UNL1        0.0092
      3 C           6.2194   32.8417    6.5010 C.ar    1  UNL1        0.0342
      4 C           4.7574   32.9092    6.2994 C.ar    1  UNL1        0.1346
      5 C           4.1529   32.6002    4.9790 C.ar    1  UNL1        0.0119
      6 C           5.0722   32.3594    3.9268 C.ar    1  UNL1        0.0049
      7 C           7.0712   32.8875    7.8178 C.ar    1  UNL1        0.0031
      8 C           7.0651   31.7928    8.7542 C.ar    1  UNL1        0.0024
      9 C           7.7412   31.7800    9.9903 C.ar    1  UNL1        0.0296
     10 C           8.4752   32.8804   10.3588 C.ar    1  UNL1        0.1401
     11 F           9.1150   32.8883   11.5367 F       1  UNL1       -0.2042
     12 C           8.5344   33.9736    9.5070 C.ar    1  UNL1        0.0296
     13 C           7.8421   33.9783    8.2619 C.ar    1  UNL1        0.0024
     14 C           2.6947   32.5818    4.3281 C.3     1  UNL1        0.0253
     15 C           1.6262   31.5633    4.8036 C.3     1  UNL1        0.0048
     16 C           1.8649   33.8378    4.2933 C.3     1  UNL1        0.0048
     17 S           7.5886   32.1730    2.7393 S.3     1  UNL1       -0.1048
     18 C           7.7539   33.7799    1.7568 C.3     1  UNL1        0.0860
     19 C           6.4122   33.9715    1.0423 C.3     1  UNL1        0.0225
     20 C           8.8988   33.9752    0.7322 C.3     1  UNL1        0.0225
     21 S           7.8844   35.1554    3.0978 S.3     1  UNL1       -0.1048
     22 C          11.9077   35.5869    3.8573 C.ar    1  UNL1       -0.0375
     23 C          10.6478   35.5906    3.2742 C.ar    1  UNL1        0.0007
     24 C           9.5426   34.9250    3.7697 C.ar    1  UNL1        0.0256
     25 C           9.7493   34.0921    4.8611 C.ar    1  UNL1        0.0050
     26 C          11.0039   33.9769    5.5187 C.ar    1  UNL1       -0.0153
     27 C          12.1063   34.7996    5.0299 C.ar    1  UNL1       -0.0954
     28 O          13.2231   34.8735    5.6265 O.co2   1  UNL1       -0.8730
     29 C          11.1195   33.0401    6.7371 C.ar    1  UNL1       -0.0010
     30 C          11.8425   33.3770    7.9046 C.ar    1  UNL1        0.0023
     31 C          11.9481   32.5133    9.0087 C.ar    1  UNL1        0.0296
     32 C          11.3339   31.2738    8.9792 C.ar    1  UNL1        0.1401
     33 F          11.4366   30.4517   10.0300 F       1  UNL1       -0.2042
     34 C          10.6200   30.8857    7.8716 C.ar    1  UNL1        0.0296
     35 C          10.5168   31.7626    6.7885 C.ar    1  UNL1        0.0023
     36 C          13.9631   36.0223    2.2906 C.3     1  UNL1        0.0046
     37 C          12.9583   36.5945    3.2987 C.3     1  UNL1        0.0212
     38 C          12.4120   37.8655    2.5995 C.3     1  UNL1        0.0046
     39 O           4.1179   33.3557    7.4553 O.3     1  UNL1       -0.4732
     40 C           3.1833   32.5196    8.1348 C.3     1  UNL1        0.2344
     41 C           2.7765   32.7667    9.5962 C.3     1  UNL1        0.1564
     42 O           1.8841   33.8986    9.6267 O.3     1  UNL1       -0.3806
     43 H           2.1261   34.4858    8.8902 H       1  UNL1        0.2105
     44 C           2.0036   31.5050   10.1082 C.3     1  UNL1        0.0627
     45 C           2.6596   30.1440    9.8209 C.3     1  UNL1        0.1186
     46 O           3.8629   29.9900   10.5927 O.3     1  UNL1       -0.3840
     47 H           4.0495   29.0308   10.6328 H       1  UNL1        0.2104
     48 C           1.7373   28.9536   10.0097 C.3     1  UNL1        0.0710
     49 C           2.3286   27.8362   10.8668 C.2     1  UNL1        0.0528
     50 O           2.0535   27.9102   12.1307 O.co2   1  UNL1       -0.5491
     51 O           2.9535   26.9731   10.2558 O.co2   1  UNL1       -0.5491
@<TRIPOS>UNITY_ATOM_ATTR
28 1
charge -1
50 1
charge -1
@<TRIPOS>BOND
     1    36    37    1
     2    37    38    1
     3    37    22    1
     4    22    23   ar
     5    22    27   ar
     6    23    24   ar
     7    24    21    1
     8    24    25   ar
     9    21    18    1
    10    18    19    1
    11    18    20    1
    12    18    17    1
    13    17     1    1
    14     1     2   ar
    15     1     6   ar
    16     2     3   ar
    17     3     7    1
    18     3     4   ar
    19     7     8   ar
    20     7    13   ar
    21     8     9   ar
    22     9    10   ar
    23    10    11    1
    24    10    12   ar
    25    12    13   ar
    26     4    39    1
    27     4     5   ar
    28    39    40    1
    29    40    41    1
    30    41    42    1
    31    41    44    1
    32    42    43    1
    33    44    45    1
    34    45    46    1
    35    45    48    1
    36    46    47    1
    37    48    49    1
    38    49    50   ar
    39    49    51   ar
    40     5    14    1
    41     5     6   ar
    42    14    15    1
    43    14    16    1
    44    25    26   ar
    45    26    29    1
    46    26    27   ar
    47    29    30   ar
    48    29    35   ar
    49    30    31   ar
    50    31    32   ar
    51    32    33    1
    52    32    34   ar
    53    34    35   ar
    54    27    28    1
#	Name:			CHEMBL101
#	Creating user name:	trannguyen
#	Creation time:		Tue Feb  8 18:26:14 2022


#	Modifying user name:	trannguyen
#	Modification time:	Tue Feb  8 18:26:14 2022

@<TRIPOS>MOLECULE
CHEMBL101
 23 25 0 0 0
SMALL
GASTEIGER

@<TRIPOS>ATOM
      1 C           1.9764   30.7894    9.5208 C.3     1  UNL1        0.1566
      2 C           3.4830   30.8283    9.4418 C.2     1  UNL1        0.2539
      3 O           4.2253   30.2325   10.2059 O.2     1  UNL1       -0.2725
      4 N           3.8100   31.7543    8.4371 N.am    1  UNL1       -0.1788
      5 N           2.6367   32.1333    7.7376 N.am    1  UNL1       -0.1788
      6 C           1.4963   31.6797    8.4075 C.2     1  UNL1        0.2539
      7 O           0.3129   31.8575    8.1644 O.2     1  UNL1       -0.2725
      8 C           4.8643   32.6799    8.6951 C.ar    1  UNL1        0.0734
      9 C           4.6964   33.7238    9.6157 C.ar    1  UNL1        0.0166
     10 C           5.7411   34.6124    9.8804 C.ar    1  UNL1        0.0013
     11 C           6.9506   34.4901    9.2006 C.ar    1  UNL1        0.0001
     12 C           7.1193   33.4762    8.2596 C.ar    1  UNL1        0.0013
     13 C           6.0856   32.5671    8.0155 C.ar    1  UNL1        0.0166
     14 C           2.6608   32.3480    6.3198 C.ar    1  UNL1        0.0734
     15 C           2.4857   31.2908    5.4166 C.ar    1  UNL1        0.0166
     16 C           2.5777   31.4865    4.0366 C.ar    1  UNL1        0.0013
     17 C           2.8392   32.7520    3.5287 C.ar    1  UNL1        0.0001
     18 C           3.0109   33.8203    4.4007 C.ar    1  UNL1        0.0013
     19 C           2.9229   33.6204    5.7822 C.ar    1  UNL1        0.0166
     20 C           1.3864   29.3847    9.4322 C.3     1  UNL1        0.0185
     21 C           1.0038   28.7802   10.7905 C.3     1  UNL1        0.0010
     22 C           2.7676   27.1429   10.0478 C.3     1  UNL1        0.0000
     23 C           2.0098   27.7178   11.2347 C.3     1  UNL1        0.0000
@<TRIPOS>BOND
     1    22    23    1
     2    23    21    1
     3    21    20    1
     4    20     1    1
     5     1     2    1
     6     1     6    1
     7     2     3    2
     8     2     4   am
     9     4     8    1
    10     4     5    1
    11     8     9   ar
    12     8    13   ar
    13     9    10   ar
    14    10    11   ar
    15    11    12   ar
    16    12    13   ar
    17     5    14    1
    18     5     6   am
    19    14    15   ar
    20    14    19   ar
    21    15    16   ar
    22    16    17   ar
    23    17    18   ar
    24    18    19   ar
    25     6     7    2
#	Name:			CHEMBL1020
#	Creating user name:	trannguyen
#	Creation time:		Tue Feb  8 18:26:14 2022


#	Modifying user name:	trannguyen
#	Modification time:	Tue Feb  8 18:26:14 2022

@<TRIPOS>MOLECULE
CHEMBL1020
 20 21 0 0 0
SMALL
GASTEIGER

@<TRIPOS>ATOM
      1 C           3.1236   31.5336    8.3442 C.ar    1  UNL1        0.0992
      2 C           1.8277   31.0437    8.4030 C.ar    1  UNL1        0.0216
      3 C           1.8071   29.9356    9.2726 C.ar    1  UNL1        0.0149
      4 C           3.1020   29.6921    9.6919 C.ar    1  UNL1        0.0484
      5 N           3.8825   30.7247    9.1918 N.ar    1  UNL1       -0.3256
      6 C           5.2719   30.9897    9.5251 C.3     1  UNL1        0.1302
      7 C           3.6540   32.6382    7.5391 C.2     1  UNL1        0.2112
      8 O           3.4494   33.8161    7.8293 O.2     1  UNL1       -0.2850
      9 C           6.8048   31.4187    2.7951 C.3     1  UNL1        0.0310
     10 C           5.9978   31.7281    4.0229 C.ar    1  UNL1       -0.0218
     11 C           4.6123   31.5317    4.0329 C.ar    1  UNL1       -0.0042
     12 C           3.8584   31.8547    5.1690 C.ar    1  UNL1        0.0029
     13 C           4.4801   32.3735    6.3158 C.ar    1  UNL1        0.0404
     14 C           5.8674   32.5584    6.3062 C.ar    1  UNL1        0.0029
     15 C           6.6144   32.2631    5.1597 C.ar    1  UNL1       -0.0042
     16 C           3.5441   28.5722   10.5951 C.3     1  UNL1        0.1529
     17 C           2.4431   27.6562   11.0731 C.2     1  UNL1        0.3198
     18 O           1.7695   27.8663   12.0817 O.2     1  UNL1       -0.2499
     19 O           2.2294   26.5782   10.2905 O.3     1  UNL1       -0.4799
     20 H           2.8429   26.5227    9.5307 H       1  UNL1        0.2951
@<TRIPOS>BOND
     1     9    10    1
     2    10    11   ar
     3    10    15   ar
     4    11    12   ar
     5    12    13   ar
     6    13     7    1
     7    13    14   ar
     8     7     8    2
     9     7     1    1
    10     1     2   ar
    11     1     5   ar
    12     2     3   ar
    13     3     4   ar
    14     4    16    1
    15     4     5   ar
    16    16    17    1
    17    17    18    2
    18    17    19    1
    19    19    20    1
    20     5     6    1
    21    14    15   ar
#	Name:			CHEMBL102112
#	Creating user name:	trannguyen
#	Creation time:		Tue Feb  8 18:26:14 2022


#	Modifying user name:	trannguyen
#	Modification time:	Tue Feb  8 18:26:14 2022

@<TRIPOS>MOLECULE
CHEMBL102112
 30 32 0 0 0
SMALL
GASTEIGER

@<TRIPOS>ATOM
      1 C           1.4988   32.4115    4.8976 C.3     1  UNL1        0.0553
      2 C           2.9086   32.7683    5.2690 C.ar    1  UNL1        0.0931
      3 N           3.6314   33.1008    4.1895 N.ar    1  UNL1       -0.2466
      4 C           4.9491   33.0466    4.2660 C.ar    1  UNL1        0.0811
      5 C           5.5862   33.3160    3.0696 C.ar    1  UNL1        0.0191
      6 C           6.9496   33.1281    2.9155 C.ar    1  UNL1        0.0015
      7 C           7.6721   32.6160    3.9796 C.ar    1  UNL1        0.0001
      8 C           7.0408   32.3891    5.2140 C.ar    1  UNL1        0.0016
      9 C           5.6606   32.6745    5.4309 C.ar    1  UNL1        0.0206
     10 C           4.9099   32.5870    6.6731 C.ar    1  UNL1        0.0366
     11 C           3.4832   32.6537    6.5431 C.ar    1  UNL1        0.1520
     12 C           5.6008   32.4464    8.0420 C.ar    1  UNL1        0.0030
     13 C           5.9660   33.5477    8.8524 C.ar    1  UNL1        0.0001
     14 C           6.6129   33.4114   10.0982 C.ar    1  UNL1        0.0000
     15 C           6.9153   32.1552   10.5988 C.ar    1  UNL1        0.0000
     16 C           6.5934   31.0419    9.8358 C.ar    1  UNL1        0.0000
     17 C           5.9698   31.1900    8.5780 C.ar    1  UNL1        0.0001
     18 O           2.7340   32.4385    7.6592 O.3     1  UNL1       -0.4717
     19 C           2.2136   31.1313    7.9194 C.3     1  UNL1        0.2344
     20 C           1.0178   31.2995    8.8667 C.3     1  UNL1        0.1564
     21 O           0.1456   32.3052    8.3439 O.3     1  UNL1       -0.3806
     22 H          -0.4963   32.5360    9.0344 H       1  UNL1        0.2105
     23 C           0.2610   30.0034    9.2151 C.3     1  UNL1        0.0627
     24 C           0.7185   29.1724   10.4339 C.3     1  UNL1        0.1186
     25 O          -0.0920   28.0101   10.5333 O.3     1  UNL1       -0.3840
     26 H           0.2244   27.5205   11.3171 H       1  UNL1        0.2104
     27 C           2.1966   28.7962   10.4123 C.3     1  UNL1        0.0710
     28 C           2.5778   27.3576   10.6134 C.2     1  UNL1        0.0528
     29 O           2.1316   26.8056   11.6864 O.co2   1  UNL1       -0.5491
     30 O           3.5351   26.9062    9.9762 O.co2   1  UNL1       -0.5491
@<TRIPOS>UNITY_ATOM_ATTR
29 1
charge -1
@<TRIPOS>BOND
     1     1     2    1
     2     2     3   ar
     3     2    11   ar
     4     3     4   ar
     5     4     5   ar
     6     4     9   ar
     7     5     6   ar
     8     6     7   ar
     9     7     8   ar
    10     8     9   ar
    11     9    10   ar
    12    10    12    1
    13    10    11   ar
    14    12    13   ar
    15    12    17   ar
    16    13    14   ar
    17    14    15   ar
    18    15    16   ar
    19    16    17   ar
    20    11    18    1
    21    18    19    1
    22    19    20    1
    23    20    21    1
    24    20    23    1
    25    21    22    1
    26    23    24    1
    27    24    25    1
    28    24    27    1
    29    25    26    1
    30    27    28    1
    31    28    29   ar
    32    28    30   ar
#	Name:			CHEMBL102199
#	Creating user name:	trannguyen
#	Creation time:		Tue Feb  8 18:26:14 2022


#	Modifying user name:	trannguyen
#	Modification time:	Tue Feb  8 18:26:14 2022

@<TRIPOS>MOLECULE
CHEMBL102199
 39 42 0 0 0
SMALL
GASTEIGER

@<TRIPOS>ATOM
      1 C           6.7936   35.0679   10.8189 C.3     1  UNL1        0.0342
      2 C           6.4157   33.6703   10.3617 C.ar    1  UNL1        0.0118
      3 C           5.0052   33.4115   10.2075 C.ar    1  UNL1        0.1312
      4 C           4.6784   32.3902    9.2828 C.ar    1  UNL1        0.0193
      5 C           5.7765   31.7292    8.5716 C.ar    1  UNL1       -0.0007
      6 C           7.1474   31.9109    8.8203 C.ar    1  UNL1       -0.0004
      7 C           8.1550   31.1950    8.1057 C.ar    1  UNL1       -0.0000
      8 C           9.5106   31.3474    8.3978 C.ar    1  UNL1       -0.0000
      9 C           9.8722   32.1960    9.4293 C.ar    1  UNL1       -0.0000
     10 C           8.8836   32.9436   10.0956 C.ar    1  UNL1       -0.0002
     11 C           7.4898   32.8506    9.7936 C.ar    1  UNL1       -0.0011
     12 O           4.2061   34.4486   10.7025 O.3     1  UNL1       -0.4735
     13 C           2.8461   34.8028   10.2986 C.3     1  UNL1        0.2344
     14 C           2.5675   36.2976    9.7643 C.3     1  UNL1        0.1564
     15 O           2.5820   36.2719    8.3270 O.3     1  UNL1       -0.3806
     16 H           1.7238   36.6151    7.9934 H       1  UNL1        0.2105
     17 C           1.2426   37.0229   10.3170 C.3     1  UNL1        0.0627
     18 C           0.9865   38.5033    9.8707 C.3     1  UNL1        0.1186
     19 O           0.4968   38.5450    8.5268 O.3     1  UNL1       -0.3840
     20 H           0.0447   39.4036    8.4144 H       1  UNL1        0.2104
     21 C           0.1132   39.3855   10.7985 C.3     1  UNL1        0.0710
     22 C          -0.2895   40.8373   10.5234 C.2     1  UNL1        0.0528
     23 O          -1.3175   41.2402   11.2351 O.co2   1  UNL1       -0.5491
     24 O           0.3565   41.4535    9.6894 O.co2   1  UNL1       -0.5491
     25 C           3.3005   31.8103    8.8555 C.3     1  UNL1        0.0696
     26 C           2.9853   32.0635    7.3382 C.ar    1  UNL1       -0.0141
     27 C           3.3130   33.2717    6.6791 C.ar    1  UNL1       -0.0013
     28 C           3.1215   33.4480    5.3126 C.ar    1  UNL1        0.0293
     29 C           2.5607   32.4196    4.5825 C.ar    1  UNL1        0.1401
     30 F           2.4428   32.5534    3.2549 F       1  UNL1       -0.2042
     31 C           2.1521   31.2445    5.1950 C.ar    1  UNL1        0.0293
     32 C           2.3314   31.0810    6.5713 C.ar    1  UNL1       -0.0013
     33 C           2.9314   30.4073    9.3568 C.ar    1  UNL1       -0.0141
     34 C           3.9161   29.4330    9.6185 C.ar    1  UNL1       -0.0013
     35 C           3.5840   28.2420   10.2872 C.ar    1  UNL1        0.0293
     36 C           2.2649   27.9793   10.6238 C.ar    1  UNL1        0.1401
     37 F           1.9721   26.9244   11.3955 F       1  UNL1       -0.2042
     38 C           1.2616   28.8670   10.2705 C.ar    1  UNL1        0.0293
     39 C           1.5915   30.0781    9.6468 C.ar    1  UNL1       -0.0013
@<TRIPOS>UNITY_ATOM_ATTR
23 1
charge -1
@<TRIPOS>BOND
     1     1     2    1
     2     2     3   ar
     3     2    11   ar
     4     3    12    1
     5     3     4   ar
     6    12    13    1
     7    13    14    1
     8    14    15    1
     9    14    17    1
    10    15    16    1
    11    17    18    1
    12    18    19    1
    13    18    21    1
    14    19    20    1
    15    21    22    1
    16    22    23   ar
    17    22    24   ar
    18     4    25    1
    19     4     5   ar
    20    25    26    1
    21    25    33    1
    22    26    27   ar
    23    26    32   ar
    24    27    28   ar
    25    28    29   ar
    26    29    30    1
    27    29    31   ar
    28    31    32   ar
    29    33    34   ar
    30    33    39   ar
    31    34    35   ar
    32    35    36   ar
    33    36    37    1
    34    36    38   ar
    35    38    39   ar
    36     5     6   ar
    37     6     7   ar
    38     6    11   ar
    39     7     8   ar
    40     8     9   ar
    41     9    10   ar
    42    10    11   ar
#	Name:			CHEMBL1024
#	Creating user name:	trannguyen
#	Creation time:		Tue Feb  8 18:26:14 2022


#	Modifying user name:	trannguyen
#	Modification time:	Tue Feb  8 18:26:14 2022

@<TRIPOS>MOLECULE
CHEMBL1024
 15 15 0 0 0
SMALL
GASTEIGER

@<TRIPOS>ATOM
      1 O           0.0132   31.6937    9.0306 O.2     1  UNL1       -0.2542
      2 P           1.4589   31.7152    9.4263 P.3     1  UNL1        0.3483
      3 O           2.3894   31.3818    8.1600 O.3     1  UNL1       -0.2919
      4 C           3.7787   31.6407    8.1827 C.3     1  UNL1        0.1531
      5 C           4.1885   32.8218    9.0540 C.3     1  UNL1        0.0504
      6 C           3.0532   33.8113    9.2721 C.3     1  UNL1        0.0842
      7 N           1.9797   33.1529   10.0070 N.3     1  UNL1       -0.1968
      8 N           1.8585   30.6314   10.5824 N.3     1  UNL1       -0.2211
      9 H           1.3081   30.8146   11.4187 H       1  UNL1        0.1334
     10 C           1.7383   29.2029   10.2801 C.3     1  UNL1        0.0950
     11 C           2.8284   28.3113   10.8866 C.3     1  UNL1        0.1124
     12 CL          4.2945   28.3069    9.8734 Cl      1  UNL1       -0.1122
     13 C           0.9717   34.1051   10.4967 C.3     1  UNL1        0.0990
     14 C           1.3831   35.5824   10.4593 C.3     1  UNL1        0.1126
     15 CL         -0.0469   36.6208   10.2208 Cl      1  UNL1       -0.1122
@<TRIPOS>BOND
     1     1     2    2
     2     2     8    1
     3     2     3    1
     4     2     7    1
     5     8    10    1
     6     8     9    1
     7    10    11    1
     8    11    12    1
     9     3     4    1
    10     4     5    1
    11     5     6    1
    12     6     7    1
    13     7    13    1
    14    13    14    1
    15    14    15    1
#	Name:			CHEMBL103139
#	Creating user name:	trannguyen
#	Creation time:		Tue Feb  8 18:26:14 2022


#	Modifying user name:	trannguyen
#	Modification time:	Tue Feb  8 18:26:14 2022

@<TRIPOS>MOLECULE
CHEMBL103139
 31 33 0 0 0
SMALL
GASTEIGER

@<TRIPOS>ATOM
      1 C           2.2930   32.8506    9.3798 C.3     1  UNL1        0.0343
      2 C           3.2956   31.7310    9.1820 C.ar    1  UNL1        0.0151
      3 C           4.5977   31.9548    8.6911 C.ar    1  UNL1        0.1521
      4 C           5.6247   31.0839    9.1151 C.ar    1  UNL1        0.1147
      5 N           5.3290   29.9201    9.7611 N.ar    1  UNL1       -0.2423
      6 C           4.0442   29.5630    9.9163 C.ar    1  UNL1        0.0812
      7 C           3.7487   28.2865   10.3786 C.ar    1  UNL1        0.0191
      8 C           2.4345   27.8197   10.4752 C.ar    1  UNL1        0.0015
      9 C           1.3814   28.6521   10.1271 C.ar    1  UNL1        0.0001
     10 C           1.6487   29.9584    9.7287 C.ar    1  UNL1        0.0013
     11 C           2.9771   30.4313    9.6214 C.ar    1  UNL1        0.0166
     12 C           7.1000   31.3154    8.9645 C.ar    1  UNL1        0.0208
     13 C           7.8107   32.0986    9.9073 C.ar    1  UNL1        0.0039
     14 C           9.1769   32.3862    9.7653 C.ar    1  UNL1        0.0297
     15 C           9.8639   31.9000    8.6657 C.ar    1  UNL1        0.1401
     16 F          11.1682   32.1725    8.5199 F       1  UNL1       -0.2042
     17 C           9.2101   31.1337    7.7117 C.ar    1  UNL1        0.0297
     18 C           7.8413   30.8507    7.8581 C.ar    1  UNL1        0.0039
     19 O           4.9092   32.9366    7.7805 O.3     1  UNL1       -0.4717
     20 C           4.0741   33.0475    6.6088 C.3     1  UNL1        0.2344
     21 C           4.4932   32.2614    5.3450 C.3     1  UNL1        0.1564
     22 O           3.6439   32.6023    4.2369 O.3     1  UNL1       -0.3806
     23 H           3.9112   33.4710    3.8890 H       1  UNL1        0.2105
     24 C           5.9583   32.5430    4.8960 C.3     1  UNL1        0.0627
     25 C           6.5506   31.6477    3.7922 C.3     1  UNL1        0.1186
     26 O           5.5511   30.7067    3.4026 O.3     1  UNL1       -0.3840
     27 H           5.8439   30.3364    2.5385 H       1  UNL1        0.2104
     28 C           7.0514   32.4603    2.6062 C.3     1  UNL1        0.0710
     29 C           7.7659   31.6139    1.5793 C.2     1  UNL1        0.0528
     30 O           8.9232   32.0550    1.2999 O.co2   1  UNL1       -0.5491
     31 O           7.2616   30.4827    1.2850 O.co2   1  UNL1       -0.5491
@<TRIPOS>UNITY_ATOM_ATTR
30 1
charge -1
@<TRIPOS>BOND
     1     1     2    1
     2     2     3   ar
     3     2    11   ar
     4     3    19    1
     5     3     4   ar
     6    19    20    1
     7    20    21    1
     8    21    22    1
     9    21    24    1
    10    22    23    1
    11    24    25    1
    12    25    26    1
    13    25    28    1
    14    26    27    1
    15    28    29    1
    16    29    30   ar
    17    29    31   ar
    18     4    12    1
    19     4     5   ar
    20    12    13   ar
    21    12    18   ar
    22    13    14   ar
    23    14    15   ar
    24    15    16    1
    25    15    17   ar
    26    17    18   ar
    27     5     6   ar
    28     6     7   ar
    29     6    11   ar
    30     7     8   ar
    31     8     9   ar
    32     9    10   ar
    33    10    11   ar
#	Name:			CHEMBL103
#	Creating user name:	trannguyen
#	Creation time:		Tue Feb  8 18:26:14 2022


#	Modifying user name:	trannguyen
#	Modification time:	Tue Feb  8 18:26:14 2022

@<TRIPOS>MOLECULE
CHEMBL103
 23 26 0 0 0
SMALL
GASTEIGER

@<TRIPOS>ATOM
      1 C           9.5891   33.4988    9.1553 C.3     1  UNL1        0.0576
      2 C           9.3144   34.9999    9.1331 C.3     1  UNL1        0.0073
      3 C           7.8861   35.1364    9.6298 C.3     1  UNL1        0.0004
      4 C           7.1328   33.9076    9.0896 C.3     1  UNL1        0.0004
      5 C           6.0664   33.3916   10.0816 C.3     1  UNL1        0.0006
      6 C           4.9873   34.4222   10.4515 C.3     1  UNL1        0.0044
      7 C           3.8937   34.5494    9.4064 C.3     1  UNL1        0.0221
      8 C           3.2389   33.2145    9.1573 C.2     1  UNL1       -0.0420
      9 C           1.9056   33.0831    9.2765 C.2     1  UNL1        0.0289
     10 C           1.2087   31.8254    8.9180 C.2     1  UNL1        0.1725
     11 O          -0.0115   31.7559    9.0444 O.2     1  UNL1       -0.2914
     12 C           2.0197   30.7084    8.3138 C.3     1  UNL1        0.0694
     13 C           3.4343   30.7083    8.8758 C.3     1  UNL1        0.0118
     14 C           4.1691   32.0773    8.7321 C.3     1  UNL1        0.0157
     15 C           4.4951   32.3049    7.2388 C.3     1  UNL1        0.0041
     16 C           5.4439   32.0279    9.6701 C.3     1  UNL1        0.0035
     17 C           6.5156   31.0058    9.2185 C.3     1  UNL1        0.0003
     18 C           7.9517   31.4874    9.4346 C.3     1  UNL1        0.0004
     19 C           8.2313   32.8458    8.7533 C.3     1  UNL1        0.0065
     20 C           8.2729   32.6323    7.2166 C.3     1  UNL1        0.0004
     21 C           9.7409   33.4432   11.7840 C.3     1  UNL1        0.0722
     22 C          10.2371   32.9770   10.4408 C.2     1  UNL1        0.1507
     23 O          11.1237   32.1196   10.3770 O.2     1  UNL1       -0.2961
@<TRIPOS>BOND
     1    21    22    1
     2    22    23    2
     3     1     2    1
     4     1    19    1
     5     1    22    1
     6     2     3    1
     7     3     4    1
     8     4     5    1
     9     4    19    1
    10     5     6    1
    11     5    16    1
    12     6     7    1
    13     7     8    1
    14     8     9    2
    15     8    14    1
    16     9    10    1
    17    10    12    1
    18    10    11    2
    19    12    13    1
    20    13    14    1
    21    14    16    1
    22    14    15    1
    23    16    17    1
    24    17    18    1
    25    18    19    1
    26    19    20    1
#	Name:			CHEMBL1042
#	Creating user name:	trannguyen
#	Creation time:		Tue Feb  8 18:26:14 2022


#	Modifying user name:	trannguyen
#	Modification time:	Tue Feb  8 18:26:14 2022

@<TRIPOS>MOLECULE
CHEMBL1042
 29 31 0 0 0
SMALL
GASTEIGER

@<TRIPOS>ATOM
      1 C           6.0563   30.7046   10.6601 C.2     1  UNL1       -0.0088
      2 C           7.0405   31.2181    9.8974 C.2     1  UNL1       -0.0446
      3 C           7.5794   30.5327    8.6692 C.3     1  UNL1        0.0220
      4 C           7.5532   31.4629    7.4637 C.3     1  UNL1        0.0044
      5 C           7.8287   32.9425    7.7722 C.3     1  UNL1        0.0006
      6 C           8.5454   33.2234    9.1079 C.3     1  UNL1        0.0034
      7 C          10.0014   32.6986    9.0261 C.3     1  UNL1        0.0003
      8 C           7.7715   32.5028   10.2723 C.3     1  UNL1        0.0183
      9 C           6.8675   33.6030   10.8328 C.3     1  UNL1        0.0040
     10 C           7.7805   34.8104   10.8673 C.3     1  UNL1        0.0003
     11 C           8.6085   34.7417    9.5661 C.3     1  UNL1        0.0003
     12 C           3.5933   31.0894    8.4087 C.2     1  UNL1       -0.0049
     13 C           3.3075   30.3278    9.4698 C.2     1  UNL1       -0.0260
     14 C           2.0291   30.4469   10.2602 C.3     1  UNL1        0.0285
     15 C           1.2735   29.1147   10.2749 C.3     1  UNL1        0.0342
     16 C           2.1634   27.9475   10.7207 C.3     1  UNL1        0.1152
     17 O           2.4256   28.0354   12.1239 O.3     1  UNL1       -0.3841
     18 C           3.4971   27.9010    9.9506 C.3     1  UNL1        0.0552
     19 C           4.1844   29.2538    9.9302 C.2     1  UNL1       -0.0237
     20 C           5.4204   29.4231   10.4276 C.2     1  UNL1       -0.0051
     21 H           1.5711   28.0987   12.5828 H       1  UNL1        0.2103
     22 C           8.2867   35.9366    8.6117 C.3     1  UNL1        0.0000
     23 C           9.4515   36.4283    7.7416 C.3     1  UNL1        0.0000
     24 C           7.5718   37.1445    9.2609 C.3     1  UNL1        0.0000
     25 C           7.7862   38.4595    8.5077 C.3     1  UNL1        0.0000
     26 C           8.2546   39.5834    9.4386 C.3     1  UNL1        0.0000
     27 C           8.9427   39.0588   10.7147 C.3     1  UNL1        0.0000
     28 C          10.4587   38.9256   10.5490 C.3     1  UNL1        0.0000
     29 C           8.6379   39.9817   11.8968 C.3     1  UNL1        0.0000
@<TRIPOS>BOND
     1    12    13    2
     2    13    14    1
     3    13    19    1
     4    14    15    1
     5    15    16    1
     6    16    17    1
     7    16    18    1
     8    17    21    1
     9    18    19    1
    10    19    20    2
    11    20     1    1
    12     1     2    2
    13     2     3    1
    14     2     8    1
    15     3     4    1
    16     4     5    1
    17     5     6    1
    18     6     8    1
    19     6    11    1
    20     6     7    1
    21     8     9    1
    22     9    10    1
    23    10    11    1
    24    11    22    1
    25    22    24    1
    26    22    23    1
    27    24    25    1
    28    25    26    1
    29    26    27    1
    30    27    28    1
    31    27    29    1
#	Name:			CHEMBL1046
#	Creating user name:	trannguyen
#	Creation time:		Tue Feb  8 18:26:14 2022


#	Modifying user name:	trannguyen
#	Modification time:	Tue Feb  8 18:26:14 2022

@<TRIPOS>MOLECULE
CHEMBL1046
 12 11 0 0 0
SMALL
GASTEIGER

@<TRIPOS>ATOM
      1 C           3.7224   30.7790    9.2700 C.3     1  UNL1        0.0020
      2 C           2.4115   31.0325    8.5121 C.3     1  UNL1        0.0169
      3 N           0.2064   32.2190    8.5770 N.3     1  UNL1       -0.3211
      4 C           1.5672   32.1701    9.0954 C.3     1  UNL1        0.0651
      5 H           0.1775   32.7706    7.7209 H       1  UNL1        0.1189
      6 H          -0.1195   31.2854    8.3320 H       1  UNL1        0.1189
      7 C           3.6891   29.4300    9.9852 C.3     1  UNL1        0.0117
      8 C           2.2928   28.8157   10.0726 C.3     1  UNL1        0.1094
      9 C           2.1543   27.7067   11.0953 C.2     1  UNL1        0.3138
     10 O           1.9914   27.9420   12.2923 O.2     1  UNL1       -0.2503
     11 O           2.2210   26.4404   10.6479 O.3     1  UNL1       -0.4802
     12 H           2.3608   26.3209    9.6853 H       1  UNL1        0.2951
@<TRIPOS>BOND
     1     3     4    1
     2     3     5    1
     3     3     6    1
     4     4     2    1
     5     2     1    1
     6     1     7    1
     7     7     8    1
     8     8     9    1
     9     9    10    2
    10     9    11    1
    11    11    12    1
#	Name:			CHEMBL104
#	Creating user name:	trannguyen
#	Creation time:		Tue Feb  8 18:26:14 2022


#	Modifying user name:	trannguyen
#	Modification time:	Tue Feb  8 18:26:14 2022

@<TRIPOS>MOLECULE
CHEMBL104
 25 28 0 0 0
SMALL
GASTEIGER

@<TRIPOS>ATOM
      1 C           3.7488   32.5416    8.1614 C.3     1  UNL1        0.1275
      2 CL          0.7054   31.4640    8.7137 Cl      1  UNL1       -0.0825
      3 C           2.1681   30.6662    9.1976 C.ar    1  UNL1        0.0560
      4 C           1.9783   29.4679    9.9106 C.ar    1  UNL1        0.0112
      5 C           3.0627   28.7568   10.4106 C.ar    1  UNL1        0.0008
      6 C           4.3457   29.2253   10.1752 C.ar    1  UNL1       -0.0002
      7 C           4.5465   30.3977    9.4346 C.ar    1  UNL1       -0.0011
      8 C           3.4711   31.1661    8.9213 C.ar    1  UNL1        0.0146
      9 C           5.3190   32.8367    8.0730 C.ar    1  UNL1        0.0040
     10 C           6.0698   32.4450    6.9410 C.ar    1  UNL1       -0.0019
     11 C           7.4458   32.6974    6.8529 C.ar    1  UNL1       -0.0002
     12 C           8.1174   33.3220    7.8988 C.ar    1  UNL1       -0.0000
     13 C           7.4189   33.6777    9.0432 C.ar    1  UNL1       -0.0002
     14 C           6.0448   33.4335    9.1311 C.ar    1  UNL1       -0.0019
     15 C           3.1506   32.5464    6.6792 C.ar    1  UNL1        0.0040
     16 C           3.0142   33.7503    5.9450 C.ar    1  UNL1       -0.0019
     17 C           2.4846   33.7808    4.6459 C.ar    1  UNL1       -0.0002
     18 C           2.1042   32.6030    4.0178 C.ar    1  UNL1       -0.0000
     19 C           2.2693   31.3973    4.6836 C.ar    1  UNL1       -0.0002
     20 C           2.8049   31.3700    5.9796 C.ar    1  UNL1       -0.0019
     21 N           3.1423   33.6464    8.9993 N.ar    1  UNL1       -0.3008
     22 C           3.0478   34.9947    8.7401 C.ar    1  UNL1        0.0987
     23 C           2.5660   35.5755    9.8927 C.ar    1  UNL1        0.1193
     24 N           2.3834   34.6458   10.8670 N.ar    1  UNL1       -0.2223
     25 C           2.7380   33.4995   10.3169 C.ar    1  UNL1        0.1792
@<TRIPOS>BOND
     1     2     3    1
     2     3     4   ar
     3     3     8   ar
     4     4     5   ar
     5     5     6   ar
     6     6     7   ar
     7     7     8   ar
     8     8     1    1
     9     1     9    1
    10     1    15    1
    11     1    21    1
    12     9    10   ar
    13     9    14   ar
    14    10    11   ar
    15    11    12   ar
    16    12    13   ar
    17    13    14   ar
    18    15    16   ar
    19    15    20   ar
    20    16    17   ar
    21    17    18   ar
    22    18    19   ar
    23    19    20   ar
    24    21    22   ar
    25    21    25   ar
    26    22    23   ar
    27    23    24   ar
    28    24    25   ar
#	Name:			CHEMBL1054
#	Creating user name:	trannguyen
#	Creation time:		Tue Feb  8 18:26:14 2022


#	Modifying user name:	trannguyen
#	Modification time:	Tue Feb  8 18:26:14 2022

@<TRIPOS>MOLECULE
CHEMBL1054
 24 25 0 0 0
SMALL
GASTEIGER

@<TRIPOS>ATOM
      1 C           2.9843   32.0063    7.9727 C.ar    1  UNL1        0.1336
      2 C           2.4592   32.3047    6.7132 C.ar    1  UNL1        0.0419
      3 C           3.3304   32.5319    5.6438 C.ar    1  UNL1        0.1364
      4 C           4.7162   32.4715    5.7778 C.ar    1  UNL1        0.0653
      5 C           5.2184   32.1974    7.0590 C.ar    1  UNL1        0.0284
      6 C           4.3671   31.9520    8.1510 C.ar    1  UNL1        0.0775
      7 CL          5.1188   31.6091    9.6668 Cl      1  UNL1       -0.0808
      8 N           5.6059   32.8234    4.7649 N.pl3   1  UNL1       -0.3177
      9 C           5.1592   32.9202    3.3742 C.3     1  UNL1        0.1777
     10 N           3.9299   33.7208    3.3346 N.3     1  UNL1       -0.1604
     11 S           2.6559   32.9317    4.0787 S.O2    1  UNL1        0.0628
     12 O           1.6033   33.9044    4.2558 O.2     1  UNL1       -0.1529
     13 O           2.4400   31.6964    3.3599 O.2     1  UNL1       -0.1529
     14 H           6.5157   32.3683    4.8551 H       1  UNL1        0.1481
     15 H           3.6472   33.9559    2.3807 H       1  UNL1        0.1506
     16 N           0.3714   32.0922    8.7346 N.3     1  UNL1       -0.2034
     17 S           1.9005   31.7136    9.3310 S.O2    1  UNL1        0.0580
     18 O           2.1538   32.7062   10.3492 O.2     1  UNL1       -0.1532
     19 O           1.8554   30.2960    9.5870 O.2     1  UNL1       -0.1532
     20 H          -0.0114   32.8833    9.2566 H       1  UNL1        0.1442
     21 H          -0.2209   31.2608    8.7652 H       1  UNL1        0.1442
     22 C           6.2601   33.6010    2.4989 C.3     1  UNL1        0.1930
     23 CL          7.1828   34.8058    3.4486 Cl      1  UNL1       -0.0937
     24 CL          7.3971   32.3850    1.8393 Cl      1  UNL1       -0.0937
@<TRIPOS>BOND
     1    16    17    1
     2    16    20    1
     3    16    21    1
     4    17    18    2
     5    17    19    2
     6    17     1    1
     7     1     2   ar
     8     1     6   ar
     9     2     3   ar
    10     3     4   ar
    11     3    11    1
    12     4     5   ar
    13     4     8    1
    14     5     6   ar
    15     6     7    1
    16     8     9    1
    17     8    14    1
    18     9    22    1
    19     9    10    1
    20    22    23    1
    21    22    24    1
    22    10    11    1
    23    10    15    1
    24    11    12    2
    25    11    13    2
#	Name:			CHEMBL1055
#	Creating user name:	trannguyen
#	Creation time:		Tue Feb  8 18:26:14 2022


#	Modifying user name:	trannguyen
#	Modification time:	Tue Feb  8 18:26:14 2022

@<TRIPOS>MOLECULE
CHEMBL1055
 26 28 0 0 0
SMALL
GASTEIGER

@<TRIPOS>ATOM
      1 C           3.8260   32.0677    5.3198 C.ar    1  UNL1        0.1320
      2 C           3.1636   31.8271    6.5390 C.ar    1  UNL1        0.0207
      3 C           3.8377   31.9292    7.7709 C.ar    1  UNL1        0.0249
      4 C           5.2009   32.2742    7.7396 C.ar    1  UNL1        0.0009
      5 C           5.8589   32.5123    6.5283 C.ar    1  UNL1        0.0126
      6 C           5.1780   32.4084    5.3121 C.ar    1  UNL1        0.0762
      7 CL          6.0931   32.7306    3.8838 Cl      1  UNL1       -0.0809
      8 C           3.1275   31.6644    9.0921 C.3     1  UNL1        0.1885
      9 O           3.6190   32.4774   10.1317 O.3     1  UNL1       -0.3639
     10 N           1.7276   31.9555    9.0091 N.am    1  UNL1       -0.2761
     11 C           0.9336   30.8574    9.2463 C.2     1  UNL1        0.2476
     12 O          -0.2765   30.7998    9.1682 O.2     1  UNL1       -0.2701
     13 C           1.8280   29.7560    9.6148 C.ar    1  UNL1        0.0535
     14 C           1.5156   28.4633    9.9875 C.ar    1  UNL1        0.0043
     15 C           2.5785   27.6200   10.3138 C.ar    1  UNL1        0.0001
     16 C           3.9063   28.0862   10.2642 C.ar    1  UNL1       -0.0002
     17 C           4.1961   29.4002    9.8776 C.ar    1  UNL1        0.0001
     18 C           3.1392   30.2309    9.5427 C.ar    1  UNL1        0.0279
     19 H           2.8893   32.5159   10.7712 H       1  UNL1        0.2127
     20 H           1.3503   32.8226    8.6558 H       1  UNL1        0.1524
     21 N           1.3203   31.7829    4.3542 N.3     1  UNL1       -0.2034
     22 S           2.9069   31.9109    3.8210 S.O2    1  UNL1        0.0580
     23 O           3.1934   30.6257    3.2249 O.2     1  UNL1       -0.1532
     24 O           3.0087   33.1359    3.0641 O.2     1  UNL1       -0.1532
     25 H           0.9328   30.8783    4.0846 H       1  UNL1        0.1442
     26 H           0.7791   32.5832    4.0231 H       1  UNL1        0.1442
@<TRIPOS>BOND
     1    21    22    1
     2    21    25    1
     3    21    26    1
     4    22    23    2
     5    22    24    2
     6    22     1    1
     7     1     2   ar
     8     1     6   ar
     9     2     3   ar
    10     3     8    1
    11     3     4   ar
    12     8     9    1
    13     8    10    1
    14     8    18    1
    15     9    19    1
    16    10    11   am
    17    10    20    1
    18    11    12    2
    19    11    13    1
    20    13    14   ar
    21    13    18   ar
    22    14    15   ar
    23    15    16   ar
    24    16    17   ar
    25    17    18   ar
    26     4     5   ar
    27     5     6   ar
    28     6     7    1
#	Name:			CHEMBL105
#	Creating user name:	trannguyen
#	Creation time:		Tue Feb  8 18:26:14 2022


#	Modifying user name:	trannguyen
#	Modification time:	Tue Feb  8 18:26:14 2022

@<TRIPOS>MOLECULE
CHEMBL105
 29 32 0 0 0
SMALL
GASTEIGER

@<TRIPOS>ATOM
      1 C           3.1767   32.0174    9.2257 C.3     1  UNL1        0.1751
      2 C           2.0549   31.6744    8.1805 C.3     1  UNL1        0.1146
      3 C           2.7160   32.0809    6.8855 C.2     1  UNL1        0.0418
      4 C           3.9621   32.5131    7.0771 C.2     1  UNL1        0.0879
      5 C           4.8992   32.6772    5.9391 C.2     1  UNL1        0.2059
      6 O           5.9899   33.2255    6.0467 O.2     1  UNL1       -0.2856
      7 C           4.4690   32.0200    4.6640 C.2     1  UNL1        0.0343
      8 C           5.5958   31.6314    3.7562 C.3     1  UNL1        0.0358
      9 C           3.1705   31.7376    4.4395 C.2     1  UNL1        0.0798
     10 N           2.6464   31.1724    3.2855 N.pl3   1  UNL1       -0.3547
     11 C           2.1657   31.9998    5.5362 C.2     1  UNL1        0.2057
     12 O           0.9657   32.0981    5.2965 O.2     1  UNL1       -0.2856
     13 N           4.2671   32.6507    8.4254 N.pl3   1  UNL1       -0.2841
     14 C           5.5845   32.3416    8.9933 C.3     1  UNL1        0.1101
     15 C           5.3595   31.1050    9.8146 C.3     1  UNL1        0.0928
     16 N           4.7845   29.8961    9.2241 N.3     1  UNL1       -0.2926
     17 C           3.8908   30.8520    9.9157 C.3     1  UNL1        0.1140
     18 H           3.1349   31.4323    2.4343 H       1  UNL1        0.1424
     19 H           1.6366   31.3268    3.2238 H       1  UNL1        0.1424
     20 H           4.9966   29.0897    9.8154 H       1  UNL1        0.1234
     21 C           1.3546   33.2966   10.1324 C.3     1  UNL1        0.1760
     22 O           2.7236   32.9176   10.2385 O.3     1  UNL1       -0.3372
     23 C           1.6047   30.2070    8.1947 C.3     1  UNL1        0.2186
     24 O           0.5815   30.0402    9.1965 O.3     1  UNL1       -0.4343
     25 C           0.6209   28.9117    9.9234 C.2     1  UNL1        0.3985
     26 N          -0.6190   28.6182   10.3666 N.am    1  UNL1       -0.2950
     27 O           1.6335   28.2944   10.2526 O.2     1  UNL1       -0.2267
     28 H          -1.2484   29.4229   10.3809 H       1  UNL1        0.1482
     29 H          -0.6720   27.9902   11.1565 H       1  UNL1        0.1482
@<TRIPOS>BOND
     1    21    22    1
     2     1    22    1
     3     1     2    1
     4     1    13    1
     5     1    17    1
     6     2    23    1
     7     2     3    1
     8    23    24    1
     9    24    25    1
    10    25    26   am
    11    25    27    2
    12    26    28    1
    13    26    29    1
    14     3     4    2
    15     3    11    1
    16     4     5    1
    17     4    13    1
    18     5     6    2
    19     5     7    1
    20     7     8    1
    21     7     9    2
    22     9    10    1
    23     9    11    1
    24    10    18    1
    25    10    19    1
    26    11    12    2
    27    13    14    1
    28    14    15    1
    29    15    16    1
    30    15    17    1
    31    16    17    1
    32    16    20    1
#	Name:			CHEMBL1062
#	Creating user name:	trannguyen
#	Creation time:		Tue Feb  8 18:26:14 2022


#	Modifying user name:	trannguyen
#	Modification time:	Tue Feb  8 18:26:14 2022

@<TRIPOS>MOLECULE
CHEMBL1062
 25 28 0 0 0
SMALL
GASTEIGER

@<TRIPOS>ATOM
      1 C           2.0422   30.6969    9.8069 C.3     1  UNL1        0.1388
      2 O           2.0428   31.1401   11.1687 O.3     1  UNL1       -0.3798
      3 C           2.5844   29.2612    9.7918 C.3     1  UNL1        0.0341
      4 C           4.0694   29.4519   10.0492 C.3     1  UNL1        0.0029
      5 C           4.4626   30.7222    9.2700 C.3     1  UNL1        0.0027
      6 C           5.4950   31.5840   10.0279 C.3     1  UNL1        0.0007
      7 C           6.7916   30.8511   10.4094 C.3     1  UNL1        0.0044
      8 C           7.7791   30.7377    9.2627 C.3     1  UNL1        0.0221
      9 C           8.1272   32.1033    8.7280 C.2     1  UNL1       -0.0420
     10 C           9.4119   32.4950    8.6585 C.2     1  UNL1        0.0289
     11 C           9.8054   33.7760    8.0255 C.2     1  UNL1        0.1725
     12 O          10.9915   34.0910    7.9892 O.2     1  UNL1       -0.2914
     13 C           8.7335   34.5984    7.3577 C.3     1  UNL1        0.0694
     14 C           7.4058   34.4408    8.0855 C.3     1  UNL1        0.0118
     15 C           6.9514   32.9574    8.2523 C.3     1  UNL1        0.0157
     16 C           6.5385   32.4137    6.8648 C.3     1  UNL1        0.0041
     17 C           5.7864   32.9406    9.3261 C.3     1  UNL1        0.0035
     18 C           4.4922   33.6397    8.8477 C.3     1  UNL1        0.0004
     19 C           3.2138   32.9786    9.3636 C.3     1  UNL1        0.0027
     20 C           3.1146   31.4820    8.9745 C.3     1  UNL1        0.0289
     21 C           2.8197   31.3681    7.4562 C.3     1  UNL1        0.0028
     22 H           1.5675   30.4754   11.6993 H       1  UNL1        0.2108
     23 C          -0.2069   29.4847    9.2510 C.3     1  UNL1        0.0748
     24 C           0.5989   30.7599    9.2577 C.2     1  UNL1        0.1749
     25 O           0.0980   31.8106    8.8499 O.2     1  UNL1       -0.2936
@<TRIPOS>BOND
     1    23    24    1
     2    24    25    2
     3     1     3    1
     4     1    20    1
     5     1     2    1
     6     1    24    1
     7     2    22    1
     8     3     4    1
     9     4     5    1
    10     5     6    1
    11     5    20    1
    12     6     7    1
    13     6    17    1
    14     7     8    1
    15     8     9    1
    16     9    10    2
    17     9    15    1
    18    10    11    1
    19    11    13    1
    20    11    12    2
    21    13    14    1
    22    14    15    1
    23    15    17    1
    24    15    16    1
    25    17    18    1
    26    18    19    1
    27    19    20    1
    28    20    21    1
#	Name:			CHEMBL1064
#	Creating user name:	trannguyen
#	Creation time:		Tue Feb  8 18:26:14 2022


#	Modifying user name:	trannguyen
#	Modification time:	Tue Feb  8 18:26:14 2022

@<TRIPOS>MOLECULE
CHEMBL1064
 31 33 0 0 0
SMALL
GASTEIGER

@<TRIPOS>ATOM
      1 C           7.1568   32.2055    5.2205 C.3     1  UNL1        0.1730
      2 C           7.8277   33.4431    4.6082 C.3     1  UNL1        0.0483
      3 C           9.3431   33.4304    4.6286 C.3     1  UNL1        0.0253
      4 C           9.8295   34.8359    4.2531 C.3     1  UNL1        0.0048
      5 C           9.8356   33.0282    5.9755 C.2     1  UNL1       -0.0305
      6 C           9.0811   32.4282    6.9145 C.2     1  UNL1       -0.0236
      7 C           9.6787   32.3008    8.2231 C.2     1  UNL1       -0.0091
      8 C           8.9416   32.1795    9.3259 C.2     1  UNL1       -0.0268
      9 C           7.4429   32.1013    9.3267 C.3     1  UNL1        0.0224
     10 C           7.0972   30.6956    9.8509 C.3     1  UNL1        0.0047
     11 C           6.7604   32.5070    7.9500 C.3     1  UNL1        0.0117
     12 C           7.6125   31.9615    6.7267 C.3     1  UNL1        0.0624
     13 O           5.7384   32.4350    5.0123 O.3     1  UNL1       -0.4519
     14 C           5.1244   31.5829    4.1237 C.2     1  UNL1        0.3158
     15 O           5.7234   30.9039    3.3030 O.2     1  UNL1       -0.2501
     16 C           3.5769   31.7315    4.1433 C.3     1  UNL1        0.0896
     17 C           3.0517   31.6354    5.5864 C.3     1  UNL1        0.0111
     18 C           2.9500   30.5822    3.3297 C.3     1  UNL1        0.0111
     19 C           2.2345   33.8926    4.3890 C.3     1  UNL1        0.0006
     20 C           3.1132   33.0451    3.4899 C.3     1  UNL1        0.0106
     21 C           5.2568   32.1240    7.9982 C.3     1  UNL1        0.0045
     22 C           4.4143   32.8272    9.0989 C.3     1  UNL1        0.0437
     23 C           3.1651   32.0904    9.6449 C.3     1  UNL1        0.1713
     24 C           3.5115   30.6104    9.8445 C.3     1  UNL1        0.0734
     25 C           2.2869   29.7574   10.1138 C.3     1  UNL1        0.1252
     26 O           1.8680   29.9282   11.4644 O.3     1  UNL1       -0.3838
     27 C           1.1392   30.0636    9.1778 C.3     1  UNL1        0.1388
     28 C           0.9581   31.5189    8.8530 C.2     1  UNL1        0.3194
     29 O          -0.1298   31.9749    8.5119 O.2     1  UNL1       -0.2500
     30 O           2.0988   32.2599    8.7129 O.3     1  UNL1       -0.4521
     31 H           2.0910   29.1103   11.9476 H       1  UNL1        0.2104
@<TRIPOS>BOND
     1    19    20    1
     2    20    16    1
     3    16    17    1
     4    16    18    1
     5    16    14    1
     6    14    15    2
     7    14    13    1
     8     1     2    1
     9     1    12    1
    10     1    13    1
    11     2     3    1
    12     3     4    1
    13     3     5    1
    14     5     6    2
    15     6     7    1
    16     6    12    1
    17     7     8    2
    18     8     9    1
    19     9    10    1
    20     9    11    1
    21    11    21    1
    22    11    12    1
    23    21    22    1
    24    23    24    1
    25    23    30    1
    26    23    22    1
    27    24    25    1
    28    25    27    1
    29    25    26    1
    30    26    31    1
    31    27    28    1
    32    28    29    2
    33    28    30    1
#	Name:			CHEMBL1065
#	Creating user name:	trannguyen
#	Creation time:		Tue Feb  8 18:26:14 2022


#	Modifying user name:	trannguyen
#	Modification time:	Tue Feb  8 18:26:14 2022

@<TRIPOS>MOLECULE
CHEMBL1065
 28 31 0 0 0
SMALL
GASTEIGER

@<TRIPOS>ATOM
      1 C           7.7006   32.1532    2.9049 C.3     1  UNL1        0.1140
      2 C           6.3442   31.7844    3.4595 C.2     1  UNL1       -0.0190
      3 C           5.9461   32.1360    4.6977 C.2     1  UNL1       -0.0112
      4 C           4.5419   31.9177    5.1291 C.ar    1  UNL1       -0.0019
      5 C           3.4572   31.4476    4.3732 C.ar    1  UNL1       -0.0002
      6 C           2.1729   31.3624    4.9275 C.ar    1  UNL1        0.0015
      7 C           1.9128   31.7628    6.2448 C.ar    1  UNL1        0.0172
      8 C           2.9990   32.2224    6.9973 C.ar    1  UNL1        0.0596
      9 C           4.2778   32.2705    6.4591 C.ar    1  UNL1        0.0130
     10 C           5.1722   32.6761    7.4694 C.ar    1  UNL1       -0.0019
     11 C           4.4293   32.9558    8.5924 C.ar    1  UNL1        0.0717
     12 N           3.1125   32.6878    8.2923 N.ar    1  UNL1       -0.3243
     13 C           2.0097   32.8556    9.2113 C.3     1  UNL1        0.1305
     14 C           6.6316   32.6768    7.1972 C.3     1  UNL1        0.0484
     15 C           6.9351   32.8618    5.6664 C.3     1  UNL1        0.0843
     16 N           8.3467   32.4960    5.3312 N.3     1  UNL1       -0.2681
     17 C           9.3324   33.1360    6.2053 C.3     1  UNL1        0.0899
     18 C           8.6377   32.8386    3.9224 C.3     1  UNL1        0.0859
     19 N           8.4637   32.8129    0.6408 N.am    1  UNL1       -0.3032
     20 C           7.5532   33.0635    1.6596 C.2     1  UNL1        0.2275
     21 O           6.6438   33.8685    1.5516 O.2     1  UNL1       -0.2747
     22 H           9.2843   32.2501    0.8579 H       1  UNL1        0.1495
     23 CA          8.5331   33.6191   -0.5826 C.3     1  UNL1        0.1008
     24 C           7.7367   32.9341   -1.7055 C.3     1  UNL1        0.1565
     25 O           7.4868   31.5662   -1.3858 O.3     1  UNL1       -0.3802
     26 H           8.3358   31.1954   -1.0834 H       1  UNL1        0.2105
     27 C          10.6107   32.8630   -1.9260 C.3     1  UNL1        0.0018
     28 C           9.9907   33.9039   -0.9978 C.3     1  UNL1        0.0221
@<TRIPOS>BOND
     1    27    28    1
     2    28    23    1
     3    23    24    1
     4    23    19    1
     5    24    25    1
     6    25    26    1
     7    19    20   am
     8    19    22    1
     9    20    21    2
    10    20     1    1
    11     1     2    1
    12     1    18    1
    13     2     3    2
    14     3     4    1
    15     3    15    1
    16     4     5   ar
    17     4     9   ar
    18     5     6   ar
    19     6     7   ar
    20     7     8   ar
    21     8     9   ar
    22     8    12   ar
    23     9    10   ar
    24    10    11   ar
    25    10    14    1
    26    11    12   ar
    27    12    13    1
    28    14    15    1
    29    15    16    1
    30    16    18    1
    31    16    17    1
#	Name:			CHEMBL1068
#	Creating user name:	trannguyen
#	Creation time:		Tue Feb  8 18:26:14 2022


#	Modifying user name:	trannguyen
#	Modification time:	Tue Feb  8 18:26:14 2022

@<TRIPOS>MOLECULE
CHEMBL1068
 21 23 0 0 0
SMALL
GASTEIGER

@<TRIPOS>ATOM
      1 N           1.2203   31.4062   10.1862 N.am    1  UNL1       -0.3126
      2 C           1.3630   31.6412    8.8472 C.2     1  UNL1        0.3084
      3 O           0.3602   31.9993    8.2342 O.2     1  UNL1       -0.2521
      4 N           2.6655   31.5300    8.3367 N.am    1  UNL1       -0.2224
      5 C           3.7104   30.8876    9.0695 C.ar    1  UNL1        0.0560
      6 C           3.5083   29.6126    9.6214 C.ar    1  UNL1        0.0150
      7 C           4.5161   28.9882   10.3573 C.ar    1  UNL1        0.0013
      8 C           5.7344   29.6326   10.5502 C.ar    1  UNL1       -0.0002
      9 C           5.9435   30.9013   10.0117 C.ar    1  UNL1       -0.0026
     10 C           4.9317   31.5368    9.2765 C.ar    1  UNL1       -0.0004
     11 C           5.1365   32.9095    8.7176 C.3     1  UNL1        0.0967
     12 C           5.2455   32.8725    7.2207 C.2     1  UNL1        0.1787
     13 O           6.2246   33.3694    6.6604 O.2     1  UNL1       -0.2909
     14 C           4.1372   32.2791    6.4079 C.ar    1  UNL1        0.0491
     15 C           4.3129   32.3809    5.0088 C.ar    1  UNL1        0.0041
     16 C           3.3277   31.9627    4.1193 C.ar    1  UNL1        0.0002
     17 C           2.1481   31.4353    4.6149 C.ar    1  UNL1        0.0013
     18 C           1.9618   31.3231    5.9958 C.ar    1  UNL1        0.0154
     19 C           2.9402   31.7351    6.9299 C.ar    1  UNL1        0.0623
     20 H           0.3059   31.6469   10.5466 H       1  UNL1        0.1465
     21 H           1.9997   31.6168   10.7938 H       1  UNL1        0.1465
@<TRIPOS>BOND
     1     1     2   am
     2     1    20    1
     3     1    21    1
     4     2     3    2
     5     2     4   am
     6     4     5    1
     7     4    19    1
     8     5     6   ar
     9     5    10   ar
    10     6     7   ar
    11     7     8   ar
    12     8     9   ar
    13     9    10   ar
    14    10    11    1
    15    11    12    1
    16    12    13    2
    17    12    14    1
    18    14    15   ar
    19    14    19   ar
    20    15    16   ar
    21    16    17   ar
    22    17    18   ar
    23    18    19   ar
#	Name:			CHEMBL1069
#	Creating user name:	trannguyen
#	Creation time:		Tue Feb  8 18:26:14 2022


#	Modifying user name:	trannguyen
#	Modification time:	Tue Feb  8 18:26:14 2022

@<TRIPOS>MOLECULE
CHEMBL1069
 34 36 0 0 0
SMALL
GASTEIGER

@<TRIPOS>ATOM
      1 C           6.6929   33.0714    8.7917 C.ar    1  UNL1       -0.0023
      2 C           5.3509   33.1949    8.3711 C.ar    1  UNL1       -0.0026
      3 C           4.3587   32.2390    8.7459 C.ar    1  UNL1       -0.0003
      4 C           4.6663   31.1202    9.5478 C.ar    1  UNL1        0.0001
      5 C           5.9446   31.1479   10.1282 C.ar    1  UNL1       -0.0003
      6 C           6.9293   32.0857    9.7514 C.ar    1  UNL1       -0.0026
      7 C           3.8622   29.8337    9.5522 C.ar    1  UNL1        0.0030
      8 C           4.5826   28.6179    9.6737 C.ar    1  UNL1        0.0001
      9 C           3.9977   27.4348   10.1536 C.ar    1  UNL1        0.0000
     10 C           2.6534   27.4030   10.4767 C.ar    1  UNL1        0.0001
     11 C           1.8788   28.5241   10.2096 C.ar    1  UNL1        0.0031
     12 C           2.4526   29.7349    9.7298 C.ar    1  UNL1        0.0371
     13 C           1.5246   30.8100    9.3813 C.ar    1  UNL1        0.1806
     14 N           0.8190   30.9591    8.2774 N.ar    1  UNL1       -0.1084
     15 N           0.0138   32.0570    8.4712 N.ar    1  UNL1       -0.0229
     16 N           0.2134   32.5880    9.6678 N.ar    1  UNL1       -0.0464
     17 N           1.1512   31.8198   10.2304 N.ar    1  UNL1       -0.2388
     18 H           1.4631   32.0205   11.1713 H       1  UNL1        0.1923
     19 C           7.8341   33.8855    8.1479 C.3     1  UNL1        0.1206
     20 C           8.3516   33.6500    5.7122 C.2     1  UNL1        0.2262
     21 O           7.5320   34.5599    5.5233 O.2     1  UNL1       -0.2749
     22 N           8.6761   33.2310    7.0658 N.am    1  UNL1       -0.2673
     23 C           8.9921   33.0029    4.4274 C.3     1  UNL1        0.0853
     24 C           8.2388   33.1091    3.0010 C.3     1  UNL1        0.0096
     25 C           6.4146   31.2203    3.7289 C.3     1  UNL1        0.0000
     26 C           6.9360   32.2921    2.7224 C.3     1  UNL1        0.0005
     27 C          10.0853   32.8021    7.4776 C.3     1  UNL1        0.1746
     28 C          10.3609   31.3235    7.2744 C.2     1  UNL1        0.3320
     29 O           9.5814   30.3753    7.6464 O.2     1  UNL1       -0.2485
     30 O          11.4896   31.0243    6.6576 O.3     1  UNL1       -0.4790
     31 H          11.4650   30.0602    6.4742 H       1  UNL1        0.2951
     32 C          10.5864   33.2254    8.9437 C.3     1  UNL1        0.0292
     33 C          11.2342   32.1365    9.8049 C.3     1  UNL1        0.0023
     34 C          11.5503   34.4231    8.9442 C.3     1  UNL1        0.0023
@<TRIPOS>BOND
     1    25    26    1
     2    26    24    1
     3    24    23    1
     4    23    20    1
     5    20    21    2
     6    20    22   am
     7    22    19    1
     8    19     1    1
     9     1     2   ar
    10     1     6   ar
    11     2     3   ar
    12     3     4   ar
    13     4     7    1
    14     4     5   ar
    15     7     8   ar
    16     7    12   ar
    17     8     9   ar
    18     9    10   ar
    19    10    11   ar
    20    11    12   ar
    21    12    13    1
    22    13    14   ar
    23    13    17   ar
    24    14    15   ar
    25    15    16   ar
    26    16    17   ar
    27    17    18    1
    28     5     6   ar
    29    27    28    1
    30    27    32    1
    31    27    22    1
    32    28    29    2
    33    28    30    1
    34    30    31    1
    35    32    33    1
    36    32    34    1
#	Name:			CHEMBL106
#	Creating user name:	trannguyen
#	Creation time:		Tue Feb  8 18:26:14 2022


#	Modifying user name:	trannguyen
#	Modification time:	Tue Feb  8 18:26:14 2022

@<TRIPOS>MOLECULE
CHEMBL106
 23 25 0 0 0
SMALL
GASTEIGER

@<TRIPOS>ATOM
      1 O           0.8612   32.5286    8.3505 O.3     1  UNL1       -0.3786
      2 C           2.1479   32.3031    8.9713 C.3     1  UNL1        0.1541
      3 H           0.2277   32.7600    9.0677 H       1  UNL1        0.2108
      4 C           2.2327   30.8087    9.3467 C.ar    1  UNL1        0.0331
      5 C           1.0706   30.0075    9.3657 C.ar    1  UNL1        0.0026
      6 C           1.0921   28.6979    9.8562 C.ar    1  UNL1        0.0295
      7 C           2.2807   28.1597   10.3224 C.ar    1  UNL1        0.1424
      8 F           2.2891   26.9301   10.8518 F       1  UNL1       -0.2041
      9 C           3.4570   28.8871   10.2553 C.ar    1  UNL1        0.0590
     10 C           3.4252   30.1921    9.7640 C.ar    1  UNL1        0.1407
     11 F           4.5859   30.8574    9.7230 F       1  UNL1       -0.2043
     12 C           3.1944   32.6931    7.8878 C.3     1  UNL1        0.1622
     13 N           2.7178   32.6122    6.5155 N.ar    1  UNL1       -0.2272
     14 C           2.7442   33.5735    5.5531 C.ar    1  UNL1        0.1973
     15 N           2.1483   33.1169    4.4672 N.ar    1  UNL1       -0.2007
     16 C           1.7578   31.8660    4.8333 C.ar    1  UNL1        0.2210
     17 N           2.1167   31.4939    6.0676 N.ar    1  UNL1       -0.1451
     18 C           2.3206   33.2298   10.2176 C.3     1  UNL1        0.1622
     19 N           1.3289   34.2761   10.3848 N.ar    1  UNL1       -0.2272
     20 C           1.5078   35.6179   10.2360 C.ar    1  UNL1        0.1973
     21 N           0.3745   36.2391   10.4541 N.ar    1  UNL1       -0.2007
     22 C          -0.4997   35.2172   10.6768 C.ar    1  UNL1        0.2210
     23 N           0.0230   33.9905   10.5854 N.ar    1  UNL1       -0.1451
@<TRIPOS>BOND
     1     1     2    1
     2     1     3    1
     3     2    12    1
     4     2    18    1
     5     2     4    1
     6    12    13    1
     7    13    14   ar
     8    13    17   ar
     9    14    15   ar
    10    15    16   ar
    11    16    17   ar
    12    18    19    1
    13    19    20   ar
    14    19    23   ar
    15    20    21   ar
    16    21    22   ar
    17    22    23   ar
    18     4     5   ar
    19     4    10   ar
    20     5     6   ar
    21     6     7   ar
    22     7     8    1
    23     7     9   ar
    24     9    10   ar
    25    10    11    1
#	Name:			CHEMBL1070
#	Creating user name:	trannguyen
#	Creation time:		Tue Feb  8 18:26:14 2022


#	Modifying user name:	trannguyen
#	Modification time:	Tue Feb  8 18:26:14 2022

@<TRIPOS>MOLECULE
CHEMBL1070
 17 18 0 0 0
SMALL
GASTEIGER

@<TRIPOS>ATOM
      1 C           3.6334   32.6437    4.4336 C.ar    1  UNL1        0.1387
      2 C           2.4200   31.9597    4.4139 C.ar    1  UNL1        0.0369
      3 C           1.8970   31.4157    5.5852 C.ar    1  UNL1        0.0031
      4 C           2.5949   31.5081    6.7921 C.ar    1  UNL1       -0.0001
      5 C           2.0695   30.9307    7.9572 C.ar    1  UNL1       -0.0043
      6 C           2.7918   30.9311    9.1552 C.ar    1  UNL1       -0.0218
      7 C           4.0383   31.5656    9.1870 C.ar    1  UNL1       -0.0043
      8 C           4.5521   32.1888    8.0410 C.ar    1  UNL1       -0.0002
      9 C           3.8462   32.1606    6.8247 C.ar    1  UNL1        0.0030
     10 C           4.3432   32.7415    5.6375 C.ar    1  UNL1        0.0369
     11 C           5.6277   33.3820    3.3864 C.3     1  UNL1        0.2525
     12 O           4.2084   33.2444    3.3436 O.3     1  UNL1       -0.4714
     13 C           2.2468   30.2140   10.3679 C.3     1  UNL1        0.0341
     14 C           1.7388   28.8128   10.0237 C.3     1  UNL1        0.0692
     15 C           2.6310   27.7373   10.6095 C.2     1  UNL1        0.1514
     16 C           4.0372   27.6474   10.0775 C.3     1  UNL1        0.0723
     17 O           2.2457   26.9837   11.5108 O.2     1  UNL1       -0.2960
@<TRIPOS>BOND
     1    11    12    1
     2    12     1    1
     3     1     2   ar
     4     1    10   ar
     5     2     3   ar
     6     3     4   ar
     7     4     5   ar
     8     4     9   ar
     9     5     6   ar
    10     6    13    1
    11     6     7   ar
    12    13    14    1
    13    14    15    1
    14    15    16    1
    15    15    17    2
    16     7     8   ar
    17     8     9   ar
    18     9    10   ar
#	Name:			CHEMBL1071
#	Creating user name:	trannguyen
#	Creation time:		Tue Feb  8 18:26:14 2022


#	Modifying user name:	trannguyen
#	Modification time:	Tue Feb  8 18:26:14 2022

@<TRIPOS>MOLECULE
CHEMBL1071
 23 25 0 0 0
SMALL
GASTEIGER

@<TRIPOS>ATOM
      1 C           3.2196   30.1800    9.7875 C.ar    1  UNL1        0.2063
      2 N           2.7133   31.1990   10.4488 N.ar    1  UNL1       -0.2121
      3 C           2.4493   32.1409    9.4568 C.ar    1  UNL1        0.1185
      4 C           2.8274   31.6340    8.2153 C.ar    1  UNL1        0.1643
      5 O           3.3156   30.3658    8.4440 O.2     1  UNL1       -0.4384
      6 C           1.8207   33.4154    9.7939 C.ar    1  UNL1        0.0208
      7 C           2.5791   34.5992    9.7546 C.ar    1  UNL1        0.0016
      8 C           2.0358   35.8196   10.1745 C.ar    1  UNL1        0.0000
      9 C           0.7224   35.8767   10.6310 C.ar    1  UNL1        0.0000
     10 C          -0.0521   34.7210   10.6457 C.ar    1  UNL1        0.0000
     11 C           0.4972   33.5006   10.2410 C.ar    1  UNL1        0.0016
     12 C           2.8720   32.0462    6.8081 C.ar    1  UNL1        0.0361
     13 C           3.8914   32.8979    6.3427 C.ar    1  UNL1        0.0031
     14 C           3.9484   33.3023    5.0028 C.ar    1  UNL1        0.0001
     15 C           2.9932   32.8505    4.0980 C.ar    1  UNL1        0.0000
     16 C           1.9733   32.0120    4.5378 C.ar    1  UNL1        0.0001
     17 C           1.9045   31.6295    5.8834 C.ar    1  UNL1        0.0031
     18 C           3.7428   28.8933   10.3165 C.3     1  UNL1        0.0969
     19 C           2.7049   27.7822   10.2766 C.3     1  UNL1        0.1191
     20 O           1.9783   27.9882   12.5679 O.2     1  UNL1       -0.2503
     21 C           1.6859   27.9180   11.3749 C.2     1  UNL1        0.3143
     22 O           0.4109   27.9611   10.9371 O.3     1  UNL1       -0.4802
     23 H           0.3470   28.0597    9.9595 H       1  UNL1        0.2951
@<TRIPOS>BOND
     1    20    21    2
     2    21    22    1
     3    21    19    1
     4    22    23    1
     5    19    18    1
     6    18     1    1
     7     1     2   ar
     8     1     5   ar
     9     2     3   ar
    10     3     6    1
    11     3     4   ar
    12     6     7   ar
    13     6    11   ar
    14     7     8   ar
    15     8     9   ar
    16     9    10   ar
    17    10    11   ar
    18     4    12    1
    19     4     5   ar
    20    12    13   ar
    21    12    17   ar
    22    13    14   ar
    23    14    15   ar
    24    15    16   ar
    25    16    17   ar
#	Name:			CHEMBL1073
#	Creating user name:	trannguyen
#	Creation time:		Tue Feb  8 18:26:14 2022


#	Modifying user name:	trannguyen
#	Modification time:	Tue Feb  8 18:26:14 2022

@<TRIPOS>MOLECULE
CHEMBL1073
 34 36 0 0 0
SMALL
GASTEIGER

@<TRIPOS>ATOM
      1 C           6.7911   32.4161    3.2744 C.ar    1  UNL1       -0.0204
      2 C           6.1096   31.2225    3.5502 C.ar    1  UNL1       -0.0028
      3 C           4.7581   31.2427    3.8991 C.ar    1  UNL1        0.0199
      4 C           4.0834   32.4615    3.9630 C.ar    1  UNL1        0.1253
      5 C           4.7539   33.6639    3.7118 C.ar    1  UNL1        0.0199
      6 C           6.1043   33.6367    3.3610 C.ar    1  UNL1       -0.0028
      7 S           2.3569   32.4985    4.3700 S.O2    1  UNL1        0.0768
      8 O           1.9488   33.8533    4.6466 O.2     1  UNL1       -0.1498
      9 O           1.6746   31.7110    3.3520 O.2     1  UNL1       -0.1498
     10 N           2.2796   31.5884    5.7580 N.am    1  UNL1       -0.1693
     11 C           2.7859   31.9923    6.9798 C.2     1  UNL1        0.3194
     12 O           3.3065   33.0827    7.1716 O.2     1  UNL1       -0.2512
     13 N           2.6630   31.0246    7.9369 N.am    1  UNL1       -0.2894
     14 H           1.9608   30.6418    5.5982 H       1  UNL1        0.1781
     15 H           2.0425   30.2544    7.7348 H       1  UNL1        0.1509
     16 C           3.0662   31.2514    9.3196 C.3     1  UNL1        0.0731
     17 C           2.0393   30.6788   10.3054 C.3     1  UNL1        0.0196
     18 C           2.0489   29.1495   10.3417 C.3     1  UNL1        0.0017
     19 C           3.4483   28.5892   10.5842 C.3     1  UNL1        0.0001
     20 C           4.4609   29.1400    9.5856 C.3     1  UNL1        0.0017
     21 C           4.4599   30.6675    9.5844 C.3     1  UNL1        0.0196
     22 C           8.2540   32.3947    2.9085 C.3     1  UNL1        0.0476
     23 C           8.5420   31.6830    1.5793 C.3     1  UNL1        0.0944
     24 C           8.0207   32.3511   -0.7514 C.2     1  UNL1        0.2652
     25 O           7.4152   31.3178   -1.0128 O.2     1  UNL1       -0.2684
     26 N           8.6206   32.6081    0.4641 N.am    1  UNL1       -0.2992
     27 H           9.1507   33.4734    0.5419 H       1  UNL1        0.1498
     28 C           8.0101   36.5177   -4.5821 C.3     1  UNL1        0.0538
     29 C           8.0568   35.4122   -3.5765 C.ar    1  UNL1        0.0785
     30 C           8.3497   35.6700   -2.2376 C.ar    1  UNL1        0.1137
     31 N           8.3716   34.7073   -1.2837 N.ar    1  UNL1       -0.2364
     32 C           8.1086   33.4514   -1.7451 C.ar    1  UNL1        0.1535
     33 C           7.8563   33.1782   -3.0800 C.ar    1  UNL1        0.1221
     34 N           7.8254   34.1523   -4.0224 N.ar    1  UNL1       -0.2448
@<TRIPOS>BOND
     1    28    29    1
     2    29    30   ar
     3    29    34   ar
     4    30    31   ar
     5    31    32   ar
     6    32    24    1
     7    32    33   ar
     8    24    25    2
     9    24    26   am
    10    26    23    1
    11    26    27    1
    12    23    22    1
    13    22     1    1
    14     1     2   ar
    15     1     6   ar
    16     2     3   ar
    17     3     4   ar
    18     4     7    1
    19     4     5   ar
    20     7     8    2
    21     7     9    2
    22     7    10    1
    23    10    11   am
    24    10    14    1
    25    11    12    2
    26    11    13   am
    27    13    16    1
    28    13    15    1
    29    16    17    1
    30    16    21    1
    31    17    18    1
    32    18    19    1
    33    19    20    1
    34    20    21    1
    35     5     6   ar
    36    33    34   ar
#	Name:			CHEMBL1076211
#	Creating user name:	trannguyen
#	Creation time:		Tue Feb  8 18:26:14 2022


#	Modifying user name:	trannguyen
#	Modification time:	Tue Feb  8 18:26:14 2022

@<TRIPOS>MOLECULE
CHEMBL1076211
 18 19 0 0 0
SMALL
GASTEIGER

@<TRIPOS>ATOM
      1 C           5.7366   31.3374    9.0075 C.2     1  UNL1        0.1740
      2 O           6.8668   30.9277    9.2480 O.2     1  UNL1       -0.2913
      3 C           1.0688   28.3895   10.9284 C.3     1  UNL1        0.0310
      4 C           2.2741   29.1278   10.4189 C.ar    1  UNL1       -0.0218
      5 C           3.5409   28.5322   10.4526 C.ar    1  UNL1       -0.0042
      6 C           4.6780   29.2214    9.9977 C.ar    1  UNL1        0.0025
      7 C           4.5665   30.5245    9.5016 C.ar    1  UNL1        0.0347
      8 C           3.2953   31.1260    9.4910 C.ar    1  UNL1        0.0025
      9 C           2.1639   30.4387    9.9481 C.ar    1  UNL1       -0.0042
     10 C           5.5086   32.6858    8.3028 C.3     1  UNL1        0.0779
     11 C           6.5531   33.6735    8.8206 C.3     1  UNL1        0.0096
     12 C           5.6152   32.5073    6.7628 C.3     1  UNL1        0.0798
     13 N           4.6167   33.2475    5.9504 N.3     1  UNL1       -0.2723
     14 C           4.8355   33.0500    4.5026 C.3     1  UNL1        0.0721
     15 C           4.5039   31.6355    4.0135 C.3     1  UNL1        0.0174
     16 C           3.0968   31.2062    4.4237 C.3     1  UNL1        0.0029
     17 C           2.8112   31.5080    5.8933 C.3     1  UNL1        0.0174
     18 C           3.2148   32.9364    6.2621 C.3     1  UNL1        0.0721
@<TRIPOS>BOND
     1     3     4    1
     2     4     5   ar
     3     4     9   ar
     4     5     6   ar
     5     6     7   ar
     6     7     1    1
     7     7     8   ar
     8     1     2    2
     9     1    10    1
    10    10    11    1
    11    10    12    1
    12    12    13    1
    13    13    14    1
    14    13    18    1
    15    14    15    1
    16    15    16    1
    17    16    17    1
    18    17    18    1
    19     8     9   ar
#	Name:			CHEMBL1077
#	Creating user name:	trannguyen
#	Creation time:		Tue Feb  8 18:26:14 2022


#	Modifying user name:	trannguyen
#	Modification time:	Tue Feb  8 18:26:14 2022

@<TRIPOS>MOLECULE
CHEMBL1077
 23 24 0 0 0
SMALL
GASTEIGER

@<TRIPOS>ATOM
      1 N           2.0600   31.0451    8.0375 N.pl3   1  UNL1       -0.3571
      2 C           3.2356   30.8080    8.8115 C.ar    1  UNL1        0.0411
      3 C           3.1986   29.7728    9.7744 C.ar    1  UNL1        0.0019
      4 C           4.4112   29.3943   10.3931 C.ar    1  UNL1       -0.0025
      5 C           5.6137   30.0315   10.0962 C.ar    1  UNL1       -0.0001
      6 C           5.6407   31.0541    9.1574 C.ar    1  UNL1        0.0044
      7 C           4.4624   31.4689    8.5214 C.ar    1  UNL1        0.0515
      8 H           1.9983   30.3388    7.2942 H       1  UNL1        0.1423
      9 H           2.1626   31.9389    7.5246 H       1  UNL1        0.1423
     10 C           4.5217   32.6164    7.5554 C.2     1  UNL1        0.1967
     11 O           3.9918   33.6844    7.8580 O.2     1  UNL1       -0.2865
     12 C           5.2378   32.5113    6.2441 C.ar    1  UNL1        0.0390
     13 C           4.5292   32.1016    5.1052 C.ar    1  UNL1        0.0037
     14 C           5.1774   31.9994    3.8669 C.ar    1  UNL1        0.0068
     15 C           6.5370   32.2919    3.7689 C.ar    1  UNL1        0.0346
     16 BR          7.4200   32.1530    2.1035 Br      1  UNL1       -0.0490
     17 C           7.2501   32.7052    4.8907 C.ar    1  UNL1        0.0068
     18 C           6.5942   32.8456    6.1167 C.ar    1  UNL1        0.0037
     19 C           1.9551   28.9687   10.1473 C.3     1  UNL1        0.1369
     20 C           2.0213   27.7933   11.0981 C.2     1  UNL1        0.3183
     21 O           2.0019   27.9619   12.3238 O.2     1  UNL1       -0.2499
     22 O           2.2021   26.5647   10.6040 O.3     1  UNL1       -0.4799
     23 H           2.2829   26.5752    9.6135 H       1  UNL1        0.2951
@<TRIPOS>BOND
     1     1     2    1
     2     1     8    1
     3     1     9    1
     4     2     3   ar
     5     2     7   ar
     6     3    19    1
     7     3     4   ar
     8    19    20    1
     9    20    21    2
    10    20    22    1
    11    22    23    1
    12     4     5   ar
    13     5     6   ar
    14     6     7   ar
    15     7    10    1
    16    10    11    2
    17    10    12    1
    18    12    13   ar
    19    12    18   ar
    20    13    14   ar
    21    14    15   ar
    22    15    16    1
    23    15    17   ar
    24    17    18   ar
#	Name:			CHEMBL107
#	Creating user name:	trannguyen
#	Creation time:		Tue Feb  8 18:26:14 2022


#	Modifying user name:	trannguyen
#	Modification time:	Tue Feb  8 18:26:14 2022

@<TRIPOS>MOLECULE
CHEMBL107
 30 32 0 0 0
SMALL
GASTEIGER

@<TRIPOS>ATOM
      1 C           4.2700   30.2365    9.9782 C.ar    1  UNL1        0.1751
      2 C           5.6608   30.1883    9.9684 C.ar    1  UNL1        0.0360
      3 C           6.4176   30.9912    9.1099 C.ar    1  UNL1       -0.0160
      4 C           5.7865   31.8858    8.2283 C.ar    1  UNL1        0.0330
      5 C           4.3613   31.9910    8.2609 C.ar    1  UNL1        0.1750
      6 C           3.5999   31.1480    9.1329 C.ar    1  UNL1        0.2060
      7 C           6.6922   32.6345    7.2835 C.ar    1  UNL1        0.0005
      8 C           6.6434   32.1865    6.0010 C.ar    1  UNL1        0.0030
      9 C           7.5379   32.7112    4.9756 C.ar    1  UNL1        0.0402
     10 C           7.3727   34.0146    4.6841 C.ar    1  UNL1        0.1774
     11 C           8.2978   34.8466    5.5100 C.ar    1  UNL1        0.2290
     12 O           8.9170   35.7993    5.0529 O.2     1  UNL1       -0.2833
     13 C           8.3967   34.5121    6.9640 C.ar    1  UNL1        0.0425
     14 C           7.7607   33.5894    7.7365 C.ar    1  UNL1       -0.0011
     15 C           8.2708   33.5386    9.1816 C.3     1  UNL1        0.0945
     16 C           8.3371   32.2290    9.9963 C.3     1  UNL1        0.0288
     17 C           7.9154   30.9648    9.2621 C.3     1  UNL1        0.0286
     18 N           7.5934   34.6021    9.9135 N.am    1  UNL1       -0.3022
     19 C           8.1304   35.5369   10.7565 C.2     1  UNL1        0.2232
     20 C           9.6195   35.5001   11.0109 C.3     1  UNL1        0.0946
     21 O           7.4111   36.3646   11.2861 O.2     1  UNL1       -0.2751
     22 H           6.5981   34.7230    9.7574 H       1  UNL1        0.1497
     23 C           3.1471   28.1508   10.4416 C.3     1  UNL1        0.2526
     24 O           3.5296   29.4625   10.8262 O.3     1  UNL1       -0.4683
     25 O           3.8534   32.9616    7.4210 O.3     1  UNL1       -0.4683
     26 C           3.0985   32.5850    6.2745 C.3     1  UNL1        0.2526
     27 O           2.2399   31.3509    9.1978 O.3     1  UNL1       -0.4654
     28 C           1.6951   32.3704   10.0289 C.3     1  UNL1        0.2528
     29 O           6.1281   34.5296    4.3487 O.3     1  UNL1       -0.4682
     30 C           5.5417   33.8534    3.2376 C.3     1  UNL1        0.2526
@<TRIPOS>BOND
     1    23    24    1
     2    24     1    1
     3     1     2   ar
     4     1     6   ar
     5     2     3   ar
     6     3     4   ar
     7     3    17    1
     8     4     5   ar
     9     4     7    1
    10     5    25    1
    11     5     6   ar
    12    25    26    1
    13     6    27    1
    14    27    28    1
    15     7     8   ar
    16     7    14   ar
    17     8     9   ar
    18     9    10   ar
    19    10    29    1
    20    10    11   ar
    21    29    30    1
    22    11    12    2
    23    11    13   ar
    24    13    14   ar
    25    14    15    1
    26    15    18    1
    27    15    16    1
    28    18    19   am
    29    18    22    1
    30    19    20    1
    31    19    21    2
    32    16    17    1
#	Name:			CHEMBL1082
#	Creating user name:	trannguyen
#	Creation time:		Tue Feb  8 18:26:14 2022


#	Modifying user name:	trannguyen
#	Modification time:	Tue Feb  8 18:26:14 2022

@<TRIPOS>MOLECULE
CHEMBL1082
 30 32 0 0 0
SMALL
GASTEIGER

@<TRIPOS>ATOM
      1 N           5.0504   32.6824    8.7137 N.am    1  UNL1       -0.2950
      2 C           3.7744   32.6034    9.2351 C.2     1  UNL1        0.2411
      3 O           3.4319   33.2385   10.2315 O.2     1  UNL1       -0.2733
      4 H           5.2644   32.0855    7.9222 H       1  UNL1        0.1499
      5 C           8.6672   31.2351    7.1708 C.3     1  UNL1        0.0131
      6 C           9.0777   31.5169    8.6278 C.3     1  UNL1        0.0679
      7 C          10.2027   30.5449    9.0037 C.3     1  UNL1        0.0131
      8 S           7.6035   31.1279    9.6936 S.3     1  UNL1       -0.1185
      9 C           7.2284   32.8703   10.0894 C.3     1  UNL1        0.1509
     10 CA          6.0773   33.5582    9.3136 C.3     1  UNL1        0.1777
     11 C           7.2190   34.0579    8.3900 C.2     1  UNL1        0.2471
     12 O           7.3590   34.4735    7.2584 O.2     1  UNL1       -0.2730
     13 N           8.1754   33.6792    9.2993 N.am    1  UNL1       -0.2597
     14 CA          9.4005   33.0196    8.8284 C.3     1  UNL1        0.1843
     15 C          10.5354   33.3501    9.8106 C.2     1  UNL1        0.3329
     16 O          10.4495   33.2804   11.0269 O.2     1  UNL1       -0.2484
     17 OXT        11.7057   33.6750    9.2022 O.3     1  UNL1       -0.4790
     18 HXT        11.6186   33.5624    8.2315 H       1  UNL1        0.2951
     19 CA          2.8405   31.5848    8.5423 C.3     1  UNL1        0.1512
     20 N           1.5422   32.2413    8.2638 N.3     1  UNL1       -0.3116
     21 H1          0.9576   31.5673    7.7684 H       1  UNL1        0.1195
     22 H2          1.7127   32.9955    7.5972 H       1  UNL1        0.1195
     23 C           2.6728   30.3059    9.3453 C.ar    1  UNL1        0.0007
     24 C           1.3847   29.8813    9.7137 C.ar    1  UNL1        0.0006
     25 C           1.2034   28.7128   10.4594 C.ar    1  UNL1        0.0363
     26 C           2.3109   27.9572   10.8294 C.ar    1  UNL1        0.1337
     27 O           2.1834   26.8170   11.5648 O.3     1  UNL1       -0.5055
     28 C           3.5910   28.3459   10.4614 C.ar    1  UNL1        0.0363
     29 C           3.7719   29.5148    9.7235 C.ar    1  UNL1        0.0006
     30 H           1.2450   26.6883   11.7772 H       1  UNL1        0.2922
@<TRIPOS>BOND
     1     5     6    1
     2     6     7    1
     3     6     8    1
     4     6    14    1
     5     8     9    1
     6     9    10    1
     7     9    13    1
     8    10    11    1
     9    10     1    1
    10     1     2   am
    11     1     4    1
    12     2     3    2
    13    19    20    1
    14    19    23    1
    15    19     2    1
    16    20    21    1
    17    20    22    1
    18    23    24   ar
    19    23    29   ar
    20    24    25   ar
    21    25    26   ar
    22    26    27    1
    23    26    28   ar
    24    27    30    1
    25    28    29   ar
    26    11    12    2
    27    11    13   am
    28    13    14    1
    29    14    15    1
    30    15    16    2
    31    15    17    1
    32    17    18    1
#	Name:			CHEMBL108545
#	Creating user name:	trannguyen
#	Creation time:		Tue Feb  8 18:26:14 2022


#	Modifying user name:	trannguyen
#	Modification time:	Tue Feb  8 18:26:14 2022

@<TRIPOS>MOLECULE
CHEMBL108545
 12 12 0 0 0
SMALL
GASTEIGER

@<TRIPOS>ATOM
      1 C           1.6940   29.9629    9.6766 C.ar    1  UNL1        0.1092
      2 C           3.0756   30.0786    9.4545 C.ar    1  UNL1        0.0095
      3 C           3.9452   29.0675    9.8671 C.ar    1  UNL1        0.0004
      4 C           3.4405   27.9319   10.4979 C.ar    1  UNL1        0.0031
      5 C           2.0671   27.8011   10.7124 C.ar    1  UNL1        0.0368
      6 C           1.1944   28.8109   10.2969 C.ar    1  UNL1        0.1398
      7 O          -0.1497   28.6359   10.4735 O.3     1  UNL1       -0.5053
      8 H          -0.3075   27.8316   10.9936 H       1  UNL1        0.2922
      9 C           0.8404   31.0834    9.2143 C.2     1  UNL1        0.3443
     10 O          -0.2967   30.9256    8.7906 O.2     1  UNL1       -0.2448
     11 C           1.1262   33.1766   10.2175 C.3     1  UNL1        0.2560
     12 O           1.5346   32.2463    9.2166 O.3     1  UNL1       -0.4413
@<TRIPOS>BOND
     1    11    12    1
     2    12     9    1
     3     9    10    2
     4     9     1    1
     5     1     2   ar
     6     1     6   ar
     7     2     3   ar
     8     3     4   ar
     9     4     5   ar
    10     5     6   ar
    11     6     7    1
    12     7     8    1
#	Name:			CHEMBL1087
#	Creating user name:	trannguyen
#	Creation time:		Tue Feb  8 18:26:14 2022


#	Modifying user name:	trannguyen
#	Modification time:	Tue Feb  8 18:26:14 2022

@<TRIPOS>MOLECULE
CHEMBL1087
 19 20 0 0 0
SMALL
GASTEIGER

@<TRIPOS>ATOM
      1 N           4.2599   31.0758    8.6926 N.am    1  UNL1       -0.2833
      2 C           4.6374   32.3049    9.2129 C.2     1  UNL1        0.2406
      3 O           4.0805   32.8821   10.1471 O.2     1  UNL1       -0.2733
      4 H           5.0643   30.5573    8.3542 H       1  UNL1        0.1549
      5 C           4.7002   28.8310   10.4721 C.3     1  UNL1        0.0323
      6 C           3.3372   29.2233    9.9671 C.ar    1  UNL1       -0.0087
      7 C           2.2261   28.4982   10.4296 C.ar    1  UNL1       -0.0031
      8 C           0.9339   28.8646   10.0675 C.ar    1  UNL1       -0.0006
      9 C           0.7335   29.9599    9.2347 C.ar    1  UNL1       -0.0031
     10 C           1.8198   30.7087    8.7507 C.ar    1  UNL1       -0.0087
     11 C           1.5130   31.8407    7.8051 C.3     1  UNL1        0.0323
     12 C           3.1314   30.3543    9.1452 C.ar    1  UNL1        0.0423
     13 C           5.8665   32.8978    8.4807 C.3     1  UNL1        0.1351
     14 C           6.5293   34.0124    9.3068 C.3     1  UNL1        0.0254
     15 C           7.3246   33.4713   10.4924 C.3     1  UNL1        0.0033
     16 C           8.2589   32.3451   10.0699 C.3     1  UNL1        0.0174
     17 C           7.5254   31.2786    9.2543 C.3     1  UNL1        0.0725
     18 N           6.7936   31.7986    8.0849 N.3     1  UNL1       -0.2653
     19 C           7.7177   32.2442    7.0361 C.3     1  UNL1        0.0900
@<TRIPOS>BOND
     1     5     6    1
     2     6     7   ar
     3     6    12   ar
     4     7     8   ar
     5     8     9   ar
     6     9    10   ar
     7    10    11    1
     8    10    12   ar
     9    12     1    1
    10     1     2   am
    11     1     4    1
    12     2     3    2
    13     2    13    1
    14    13    14    1
    15    13    18    1
    16    14    15    1
    17    15    16    1
    18    16    17    1
    19    17    18    1
    20    18    19    1
#	Name:			CHEMBL1089
#	Creating user name:	trannguyen
#	Creation time:		Tue Feb  8 18:26:14 2022


#	Modifying user name:	trannguyen
#	Modification time:	Tue Feb  8 18:26:14 2022

@<TRIPOS>MOLECULE
CHEMBL1089
 13 13 0 0 0
SMALL
GASTEIGER

@<TRIPOS>ATOM
      1 C           4.0656   27.8303   10.2615 C.3     1  UNL1        0.0448
      2 C           4.1925   29.2828    9.8670 C.ar    1  UNL1       -0.0208
      3 C           3.0650   30.0067    9.4549 C.ar    1  UNL1       -0.0042
      4 C           3.1844   31.3430    9.0684 C.ar    1  UNL1       -0.0003
      5 C           4.4299   31.9670    9.0870 C.ar    1  UNL1       -0.0000
      6 C           5.5580   31.2552    9.4915 C.ar    1  UNL1       -0.0003
      7 C           5.4409   29.9188    9.8779 C.ar    1  UNL1       -0.0042
      8 C           2.6396   27.3022   10.0547 C.3     1  UNL1        0.0885
      9 N           1.7801   27.7794   12.2144 N.3     1  UNL1       -0.2698
     10 N           2.1246   26.7176   11.3035 N.3     1  UNL1       -0.2484
     11 H           1.6849   27.4304   13.1719 H       1  UNL1        0.1368
     12 H           0.8906   28.2279   11.9807 H       1  UNL1        0.1368
     13 H           1.3365   26.0965   11.0973 H       1  UNL1        0.1411
@<TRIPOS>BOND
     1     9    10    1
     2     9    11    1
     3     9    12    1
     4    10     8    1
     5    10    13    1
     6     8     1    1
     7     1     2    1
     8     2     3   ar
     9     2     7   ar
    10     3     4   ar
    11     4     5   ar
    12     5     6   ar
    13     6     7   ar
#	Name:			CHEMBL108
#	Creating user name:	trannguyen
#	Creation time:		Tue Feb  8 18:26:14 2022


#	Modifying user name:	trannguyen
#	Modification time:	Tue Feb  8 18:26:14 2022

@<TRIPOS>MOLECULE
CHEMBL108
 20 22 0 0 0
SMALL
GASTEIGER

@<TRIPOS>ATOM
      1 N           1.0173   31.5308   10.1487 N.am    1  UNL1       -0.3126
      2 C           1.2143   31.6848    8.8038 C.2     1  UNL1        0.3084
      3 O           0.2478   32.0514    8.1386 O.2     1  UNL1       -0.2521
      4 N           2.5265   31.4947    8.3538 N.am    1  UNL1       -0.2222
      5 C           3.5028   30.7370    9.0932 C.ar    1  UNL1        0.0595
      6 C           3.1034   29.5378    9.7191 C.ar    1  UNL1        0.0153
      7 C           4.0008   28.7677   10.4608 C.ar    1  UNL1        0.0013
      8 C           5.3189   29.1820   10.5934 C.ar    1  UNL1        0.0001
      9 C           5.7372   30.3608    9.9775 C.ar    1  UNL1        0.0012
     10 C           4.8464   31.1387    9.2143 C.ar    1  UNL1        0.0141
     11 C           5.3670   32.3956    8.6721 C.2     1  UNL1        0.0013
     12 C           5.0191   32.9130    7.4895 C.2     1  UNL1        0.0013
     13 C           4.0571   32.3139    6.5579 C.ar    1  UNL1        0.0141
     14 C           4.3187   32.4886    5.1854 C.ar    1  UNL1        0.0012
     15 C           3.4129   32.0559    4.2187 C.ar    1  UNL1        0.0001
     16 C           2.2243   31.4578    4.6122 C.ar    1  UNL1        0.0013
     17 C           1.9481   31.2873    5.9706 C.ar    1  UNL1        0.0153
     18 C           2.8545   31.7022    6.9665 C.ar    1  UNL1        0.0595
     19 H           0.1043   31.8398   10.4556 H       1  UNL1        0.1465
     20 H           1.7888   31.7808   10.7513 H       1  UNL1        0.1465
@<TRIPOS>BOND
     1     1     2   am
     2     1    19    1
     3     1    20    1
     4     2     3    2
     5     2     4   am
     6     4     5    1
     7     4    18    1
     8     5     6   ar
     9     5    10   ar
    10     6     7   ar
    11     7     8   ar
    12     8     9   ar
    13     9    10   ar
    14    10    11    1
    15    11    12    2
    16    12    13    1
    17    13    14   ar
    18    13    18   ar
    19    14    15   ar
    20    15    16   ar
    21    16    17   ar
    22    17    18   ar
#	Name:			CHEMBL1095699
#	Creating user name:	trannguyen
#	Creation time:		Tue Feb  8 18:26:14 2022


#	Modifying user name:	trannguyen
#	Modification time:	Tue Feb  8 18:26:14 2022

@<TRIPOS>MOLECULE
CHEMBL1095699
 15 14 0 0 0
SMALL
GASTEIGER

@<TRIPOS>ATOM
      1 C1          1.9232   31.0991    9.9407 C.3     1  <1>         0.1951
      2 N1          1.7687   30.4596   11.2919 N.3     1  <1>        -0.3104
      3 H1          0.8814   30.7848   11.6926 H       1  <1>         0.1194
      4 H2          2.4840   30.8642   11.9063 H       1  <1>         0.1194
      5 C2          1.1746   30.2571    8.9052 C.2     1  <1>         0.3318
      6 O1          0.8068   30.6544    7.8117 O.2     1  <1>        -0.2487
      7 O2          0.9834   28.9836    9.3385 O.3     1  <1>        -0.4792
      8 H3          1.4464   28.9155   10.2106 H       1  <1>         0.2951
      9 C3          3.3892   31.2073    9.5009 C.3     1  <1>         0.2356
     10 O3          3.9117   29.9231    9.1060 O.3     1  <1>        -0.4415
     11 C4          4.5649   29.2461   10.0616 C.2     1  <1>         0.3765
     12 O4          5.3694   29.6709   10.8628 O.2     1  <1>        -0.2418
     13 N2          2.2477   27.2458   11.5398 N.2     1  <1>         0.0443
     14 N3          3.1365   27.5205   10.8744 N.2     1  <1>        -0.2679
     15 C5          4.1672   27.8185   10.1120 C.2     1  <1>         0.2723
@<TRIPOS>BOND
     1    13    14    2
     2    14    15    2
     3    15    11    1
     4    11    12    2
     5    11    10    1
     6    10     9    1
     7     1     2    1
     8     1     5    1
     9     1     9    1
    10     2     3    1
    11     2     4    1
    12     5     6    2
    13     5     7    1
    14     7     8    1
#	Name:			CHEMBL109
#	Creating user name:	trannguyen
#	Creation time:		Tue Feb  8 18:26:14 2022


#	Modifying user name:	trannguyen
#	Modification time:	Tue Feb  8 18:26:14 2022

@<TRIPOS>MOLECULE
CHEMBL109
 11 10 0 0 0
SMALL
GASTEIGER

@<TRIPOS>ATOM
      1 C           2.4057   29.0474   10.4926 C.3     1  UNL1        0.0989
      2 C           1.6879   27.9056   11.1872 C.2     1  UNL1        0.3132
      3 O           2.2522   26.9841   11.7657 O.2     1  UNL1       -0.2503
      4 O           0.3423   27.9749   11.0904 O.3     1  UNL1       -0.4802
      5 H           0.0138   28.7409   10.5829 H       1  UNL1        0.2951
      6 C           3.7595   28.5679    9.9205 C.3     1  UNL1        0.0111
      7 C           5.4002   30.4806    9.6020 C.3     1  UNL1        0.0000
      8 C           4.9657   29.3260   10.4966 C.3     1  UNL1        0.0006
      9 C           1.4898   29.6101    9.3859 C.3     1  UNL1        0.0111
     10 C           1.7299   31.0884    9.0369 C.3     1  UNL1        0.0006
     11 C           2.2496   31.3109    7.6247 C.3     1  UNL1        0.0000
@<TRIPOS>BOND
     1     7     8    1
     2     8     6    1
     3     6     1    1
     4     1     9    1
     5     1     2    1
     6     9    10    1
     7    10    11    1
     8     2     3    2
     9     2     4    1
    10     4     5    1
#	Name:			CHEMBL10
#	Creating user name:	trannguyen
#	Creation time:		Tue Feb  8 18:26:14 2022


#	Modifying user name:	trannguyen
#	Modification time:	Tue Feb  8 18:26:14 2022

@<TRIPOS>MOLECULE
CHEMBL10
 28 31 0 0 0
SMALL
GASTEIGER

@<TRIPOS>ATOM
      1 C           2.6470   34.8462    8.5982 C.ar    1  UNL1        0.1405
      2 N           2.6335   33.7821    9.3753 N.ar    1  UNL1       -0.2270
      3 C           3.1610   32.7324    8.6298 C.ar    1  UNL1        0.0984
      4 C           3.4596   33.1486    7.3250 C.ar    1  UNL1        0.0756
      5 N           3.0876   34.4794    7.3584 N.ar    1  UNL1       -0.3373
      6 H           3.1217   35.1071    6.5656 H       1  UNL1        0.1674
      7 C           3.3082   31.4221    9.2637 C.ar    1  UNL1        0.0193
      8 C           2.1620   30.7615    9.7552 C.ar    1  UNL1        0.0038
      9 C           2.2453   29.4796   10.3111 C.ar    1  UNL1        0.0297
     10 C           3.4807   28.8549   10.3877 C.ar    1  UNL1        0.1401
     11 F           3.5651   27.6083   10.8715 F       1  UNL1       -0.2042
     12 C           4.6351   29.5155    9.9831 C.ar    1  UNL1        0.0297
     13 C           4.5518   30.8087    9.4497 C.ar    1  UNL1        0.0038
     14 C           1.5192   38.8905    9.5480 C.ar    1  UNL1        0.0438
     15 C           1.2714   37.8509   10.4552 C.ar    1  UNL1        0.0077
     16 C           1.6462   36.5295   10.1566 C.ar    1  UNL1        0.0035
     17 C           2.2625   36.2186    8.9390 C.ar    1  UNL1        0.0340
     18 C           2.5221   37.2688    8.0452 C.ar    1  UNL1        0.0035
     19 C           2.1669   38.5859    8.3500 C.ar    1  UNL1        0.0077
     20 C          -0.4369   40.3223   10.9235 C.3     1  UNL1        0.0961
     21 S           1.0898   40.5951    9.9932 S.3     1  UNL1        0.0002
     22 O           2.1839   41.0815   11.0099 O.3     1  UNL1       -0.1564
     23 C           3.9749   32.5705    6.0604 C.ar    1  UNL1        0.0202
     24 C           3.1527   31.7274    5.2867 C.ar    1  UNL1        0.0222
     25 C           3.6459   31.1468    4.1243 C.ar    1  UNL1        0.0989
     26 N           4.8946   31.3432    3.6705 N.ar    1  UNL1       -0.2423
     27 C           5.6818   32.1452    4.4185 C.ar    1  UNL1        0.0989
     28 C           5.2793   32.7618    5.6035 C.ar    1  UNL1        0.0222
@<TRIPOS>BOND
     1    20    21    1
     2    21    22    1
     3    21    14    1
     4    14    15   ar
     5    14    19   ar
     6    15    16   ar
     7    16    17   ar
     8    17     1    1
     9    17    18   ar
    10     1     2   ar
    11     1     5   ar
    12     2     3   ar
    13     3     7    1
    14     3     4   ar
    15     7     8   ar
    16     7    13   ar
    17     8     9   ar
    18     9    10   ar
    19    10    11    1
    20    10    12   ar
    21    12    13   ar
    22     4    23    1
    23     4     5   ar
    24    23    24   ar
    25    23    28   ar
    26    24    25   ar
    27    25    26   ar
    28    26    27   ar
    29    27    28   ar
    30     5     6    1
    31    18    19   ar
#	Name:			CHEMBL1103
#	Creating user name:	trannguyen
#	Creation time:		Tue Feb  8 18:26:14 2022


#	Modifying user name:	trannguyen
#	Modification time:	Tue Feb  8 18:26:14 2022

@<TRIPOS>MOLECULE
CHEMBL1103
 16 17 0 0 0
SMALL
GASTEIGER

@<TRIPOS>ATOM
      1 N           5.4354   31.3367   10.1807 N.2     1  UNL1       -0.1682
      2 C           4.3511   31.4697    9.4838 C.2     1  UNL1        0.1554
      3 O           7.2510   32.5651   12.2204 O.2     1  UNL1       -0.2243
      4 C           7.2766   32.7774   11.0183 C.2     1  UNL1        0.4242
      5 O           8.2420   33.5547   10.4286 O.3     1  UNL1       -0.4314
      6 C           7.9112   33.6892    9.0429 C.3     1  UNL1        0.2339
      7 C           6.9772   32.5436    8.7525 C.3     1  UNL1        0.1700
      8 N           6.4116   32.2910   10.0382 N.am    1  UNL1       -0.1427
      9 C           3.2761   30.5244    9.6062 C.ar    1  UNL1        0.1680
     10 C           2.0806   30.3648    8.9260 C.ar    1  UNL1        0.0441
     11 C           1.4154   29.2576    9.5156 C.ar    1  UNL1        0.0619
     12 C           2.2574   28.8147   10.5080 C.ar    1  UNL1        0.2384
     13 O           3.3863   29.5659   10.5785 O.2     1  UNL1       -0.4339
     14 N           2.1445   27.7477   11.4511 N.pl3   1  UNL1       -0.1507
     15 O           1.8412   28.0707   12.6087 O.2     1  UNL1       -0.1698
     16 O           2.3554   26.5964   11.0519 O.co2   1  UNL1       -0.7748
@<TRIPOS>UNITY_ATOM_ATTR
16 1
charge -1
@<TRIPOS>BOND
     1     3     4    2
     2     4     5    1
     3     4     8   am
     4     5     6    1
     5     6     7    1
     6     7     8    1
     7     8     1    1
     8     1     2    2
     9     2     9    1
    10     9    10   ar
    11     9    13   ar
    12    10    11   ar
    13    11    12   ar
    14    12    14    1
    15    12    13   ar
    16    14    15    2
    17    14    16    1
#	Name:			CHEMBL1105
#	Creating user name:	trannguyen
#	Creation time:		Tue Feb  8 18:26:14 2022


#	Modifying user name:	trannguyen
#	Modification time:	Tue Feb  8 18:26:14 2022

@<TRIPOS>MOLECULE
CHEMBL1105
 17 18 0 0 0
SMALL
GASTEIGER

@<TRIPOS>ATOM
      1 C           3.8697   32.9509    6.0525 C.ar    1  UNL1        0.1387
      2 C           2.5552   32.6878    5.6661 C.ar    1  UNL1        0.0369
      3 C           1.7440   31.8468    6.4331 C.ar    1  UNL1        0.0031
      4 C           2.2381   31.2488    7.6022 C.ar    1  UNL1       -0.0001
      5 C           1.4509   30.3770    8.3757 C.ar    1  UNL1       -0.0037
      6 C           1.9564   29.7766    9.5401 C.ar    1  UNL1       -0.0111
      7 C           3.2549   30.0942    9.9537 C.ar    1  UNL1       -0.0037
      8 C           4.0501   30.9516    9.1896 C.ar    1  UNL1       -0.0002
      9 C           3.5621   31.5251    8.0065 C.ar    1  UNL1        0.0030
     10 C           4.3656   32.3723    7.2207 C.ar    1  UNL1        0.0369
     11 C           4.3398   33.6122    3.8182 C.3     1  UNL1        0.2525
     12 O           4.5596   33.7833    5.2135 O.3     1  UNL1       -0.4714
     13 C           1.1046   28.8179   10.3395 C.3     1  UNL1        0.1357
     14 C           1.8435   27.8034   11.1870 C.2     1  UNL1        0.3183
     15 O           2.0277   27.9567   12.3895 O.2     1  UNL1       -0.2499
     16 O           2.2173   26.6666   10.5540 O.3     1  UNL1       -0.4799
     17 H           2.0071   26.6499    9.5999 H       1  UNL1        0.2951
@<TRIPOS>BOND
     1    11    12    1
     2    12     1    1
     3     1     2   ar
     4     1    10   ar
     5     2     3   ar
     6     3     4   ar
     7     4     5   ar
     8     4     9   ar
     9     5     6   ar
    10     6    13    1
    11     6     7   ar
    12    13    14    1
    13    14    15    2
    14    14    16    1
    15    16    17    1
    16     7     8   ar
    17     8     9   ar
    18     9    10   ar
#	Name:			CHEMBL110691
#	Creating user name:	trannguyen
#	Creation time:		Tue Feb  8 18:26:14 2022


#	Modifying user name:	trannguyen
#	Modification time:	Tue Feb  8 18:26:14 2022

@<TRIPOS>MOLECULE
CHEMBL110691
 28 31 0 0 0
SMALL
GASTEIGER

@<TRIPOS>ATOM
      1 C           9.3929   32.5432    7.7958 C.3     1  UNL1        0.1859
      2 C           9.2511   31.0237    7.4993 C.3     1  UNL1        0.0474
      3 C           7.8747   30.6262    8.0065 C.3     1  UNL1        0.0045
      4 C           7.7622   31.3749    9.3254 C.3     1  UNL1        0.0078
      5 C           6.3998   31.3199   10.0795 C.3     1  UNL1        0.0233
      6 C           5.8340   29.9304   10.1928 C.2     1  UNL1       -0.0154
      7 C           4.5669   29.5853    9.9153 C.2     1  UNL1        0.0495
      8 CL          4.1305   27.9174   10.1549 Cl      1  UNL1       -0.0829
      9 C           3.5751   30.5275    9.3876 C.2     1  UNL1       -0.0097
     10 C           2.2545   30.2580    9.4065 C.2     1  UNL1        0.0340
     11 C           1.2401   31.1628    8.8187 C.2     1  UNL1        0.1728
     12 O           0.0592   30.8219    8.8174 O.2     1  UNL1       -0.2913
     13 C           1.6945   32.4401    8.1699 C.3     1  UNL1        0.0695
     14 C           3.0116   32.9229    8.7608 C.3     1  UNL1        0.0122
     15 C           4.1335   31.8386    8.7965 C.3     1  UNL1        0.0205
     16 C           4.5436   31.5353    7.3444 C.3     1  UNL1        0.0044
     17 C           5.3086   32.3613    9.7219 C.3     1  UNL1        0.0078
     18 C           5.9250   33.7299    9.3901 C.3     1  UNL1        0.0008
     19 C           7.1365   33.6778    8.4703 C.3     1  UNL1        0.0038
     20 C           8.3072   32.7925    8.9749 C.3     1  UNL1        0.0404
     21 C           8.8956   33.4153   10.2594 C.3     1  UNL1        0.0039
     22 C          10.8663   32.8627    8.1978 C.2     1  UNL1        0.1869
     23 C          11.7187   31.7621    8.7933 C.3     1  UNL1        0.0760
     24 O          11.3745   33.9692    7.9926 O.2     1  UNL1       -0.2924
     25 O           9.0061   33.3611    6.6505 O.3     1  UNL1       -0.4486
     26 C           7.7527   32.6865    4.7789 C.3     1  UNL1        0.1212
     27 C           9.1095   32.9096    5.3760 C.2     1  UNL1        0.3177
     28 O          10.1533   32.8178    4.7360 O.2     1  UNL1       -0.2501
@<TRIPOS>BOND
     1    26    27    1
     2    27    28    2
     3    27    25    1
     4     1     2    1
     5     1    20    1
     6     1    25    1
     7     1    22    1
     8    22    23    1
     9    22    24    2
    10     2     3    1
    11     3     4    1
    12     4     5    1
    13     4    20    1
    14     5     6    1
    15     5    17    1
    16     6     7    2
    17     7     9    1
    18     7     8    1
    19     9    10    2
    20     9    15    1
    21    10    11    1
    22    11    13    1
    23    11    12    2
    24    13    14    1
    25    14    15    1
    26    15    17    1
    27    15    16    1
    28    17    18    1
    29    18    19    1
    30    19    20    1
    31    20    21    1
#	Name:			CHEMBL1108
#	Creating user name:	trannguyen
#	Creation time:		Tue Feb  8 18:26:14 2022


#	Modifying user name:	trannguyen
#	Modification time:	Tue Feb  8 18:26:14 2022

@<TRIPOS>MOLECULE
CHEMBL1108
 29 32 0 0 0
SMALL
GASTEIGER

@<TRIPOS>ATOM
      1 N           7.3513   33.0051    7.8587 N.3     1  UNL1       -0.2686
      2 C           6.0455   33.3828    7.2831 C.3     1  UNL1        0.1000
      3 C           4.8473   32.6908    7.8772 C.2     1  UNL1        0.0045
      4 C           4.8561   31.9976    9.0326 C.2     1  UNL1        0.0441
      5 C           6.1433   31.9530    9.8169 C.3     1  UNL1        0.0613
      6 C           7.2175   32.9284    9.3188 C.3     1  UNL1        0.0786
      7 N           3.7316   31.3438    9.5357 N.ar    1  UNL1       -0.2630
      8 C           2.4681   31.9931    9.8188 C.ar    1  UNL1        0.3319
      9 O           2.1593   33.1650    9.7544 O.2     1  UNL1       -0.2462
     10 N           1.5850   30.9902   10.2490 N.ar    1  UNL1       -0.3051
     11 H           0.6320   31.1792   10.5123 H       1  UNL1        0.1705
     12 C           2.2348   29.7715   10.2618 C.ar    1  UNL1        0.0764
     13 C           1.7070   28.5411   10.5938 C.ar    1  UNL1        0.0186
     14 C           2.5606   27.4416   10.5190 C.ar    1  UNL1        0.0016
     15 C           3.8966   27.6041   10.1181 C.ar    1  UNL1        0.0016
     16 C           4.3991   28.8673    9.7773 C.ar    1  UNL1        0.0191
     17 C           3.5560   29.9617    9.8533 C.ar    1  UNL1        0.0835
     18 C           7.9013   31.8084    7.1972 C.3     1  UNL1        0.0728
     19 C           7.1092   31.2843    5.9868 C.3     1  UNL1        0.0254
     20 C           7.2949   32.0643    4.6836 C.3     1  UNL1        0.0706
     21 O           6.6012   31.3245    2.4940 O.2     1  UNL1       -0.2913
     22 C           6.2764   31.7818    3.5873 C.2     1  UNL1        0.1731
     23 C           4.8603   32.1974    3.8053 C.ar    1  UNL1        0.0348
     24 C           3.8783   31.2077    3.9758 C.ar    1  UNL1        0.0051
     25 C           2.5430   31.5702    4.1751 C.ar    1  UNL1        0.0297
     26 C           2.1989   32.9166    4.2151 C.ar    1  UNL1        0.1401
     27 F           0.9221   33.2673    4.4159 F       1  UNL1       -0.2042
     28 C           3.1627   33.9068    4.0580 C.ar    1  UNL1        0.0297
     29 C           4.4974   33.5487    3.8547 C.ar    1  UNL1        0.0051
@<TRIPOS>BOND
     1    21    22    2
     2    22    20    1
     3    22    23    1
     4    20    19    1
     5    19    18    1
     6    18     1    1
     7     1     2    1
     8     1     6    1
     9     2     3    1
    10     3     4    2
    11     4     7    1
    12     4     5    1
    13     7     8   ar
    14     7    17   ar
    15     8     9    2
    16     8    10   ar
    17    10    11    1
    18    10    12   ar
    19    12    13   ar
    20    12    17   ar
    21    13    14   ar
    22    14    15   ar
    23    15    16   ar
    24    16    17   ar
    25     5     6    1
    26    23    24   ar
    27    23    29   ar
    28    24    25   ar
    29    25    26   ar
    30    26    27    1
    31    26    28   ar
    32    28    29   ar
#	Name:			CHEMBL1109
#	Creating user name:	trannguyen
#	Creation time:		Tue Feb  8 18:26:14 2022


#	Modifying user name:	trannguyen
#	Modification time:	Tue Feb  8 18:26:14 2022

@<TRIPOS>MOLECULE
CHEMBL1109
 25 27 0 0 0
SMALL
GASTEIGER

@<TRIPOS>ATOM
      1 N           6.5723   31.3983    8.2301 N.pl3   1  UNL1       -0.1988
      2 H           7.2657   30.6988    8.4458 H       1  UNL1        0.1753
      3 C           6.9173   32.3643    7.2968 C.ar    1  UNL1        0.1500
      4 C           8.0714   33.1072    7.3660 C.ar    1  UNL1        0.0580
      5 C           7.9303   34.0644    6.3480 C.ar    1  UNL1        0.1235
      6 N           6.7745   33.9509    5.6917 N.ar    1  UNL1       -0.1623
      7 N           6.1791   32.8504    6.2242 N.ar    1  UNL1       -0.2148
      8 C           5.0238   32.2856    5.6245 C.ar    1  UNL1        0.0842
      9 C           5.1281   31.6697    4.3701 C.ar    1  UNL1        0.0192
     10 C           3.9978   31.1038    3.7756 C.ar    1  UNL1        0.0015
     11 C           2.7722   31.1219    4.4405 C.ar    1  UNL1        0.0001
     12 C           2.6706   31.7096    5.7001 C.ar    1  UNL1        0.0015
     13 C           3.7916   32.2943    6.2941 C.ar    1  UNL1        0.0192
     14 S           5.7399   31.8663    9.5730 S.O2    1  UNL1        0.0747
     15 O           5.0016   33.0850    9.3560 O.2     1  UNL1       -0.1499
     16 O           6.6344   31.7392   10.7138 O.2     1  UNL1       -0.1499
     17 N           1.7792   27.4439   10.1290 N.pl3   1  UNL1       -0.3570
     18 C           2.7004   28.4902   10.0629 C.ar    1  UNL1        0.0416
     19 C           4.0719   28.2258   10.1444 C.ar    1  UNL1        0.0155
     20 C           5.0079   29.2497    9.9909 C.ar    1  UNL1        0.0214
     21 C           4.5613   30.5427    9.7161 C.ar    1  UNL1        0.1253
     22 C           3.2012   30.8057    9.5312 C.ar    1  UNL1        0.0214
     23 C           2.2795   29.7701    9.6891 C.ar    1  UNL1        0.0155
     24 H           2.0826   26.6510   10.6867 H       1  UNL1        0.1424
     25 H           0.8317   27.7295   10.3582 H       1  UNL1        0.1424
@<TRIPOS>BOND
     1    17    18    1
     2    17    24    1
     3    17    25    1
     4    18    19   ar
     5    18    23   ar
     6    19    20   ar
     7    20    21   ar
     8    21    14    1
     9    21    22   ar
    10    14    15    2
    11    14    16    2
    12    14     1    1
    13     1     3    1
    14     1     2    1
    15     3     4   ar
    16     3     7   ar
    17     4     5   ar
    18     5     6   ar
    19     6     7   ar
    20     7     8    1
    21     8     9   ar
    22     8    13   ar
    23     9    10   ar
    24    10    11   ar
    25    11    12   ar
    26    12    13   ar
    27    22    23   ar
#	Name:			CHEMBL1110
#	Creating user name:	trannguyen
#	Creation time:		Tue Feb  8 18:26:14 2022


#	Modifying user name:	trannguyen
#	Modification time:	Tue Feb  8 18:26:14 2022

@<TRIPOS>MOLECULE
CHEMBL1110
 23 26 0 0 0
SMALL
GASTEIGER

@<TRIPOS>ATOM
      1 N           2.4073   31.6415    8.8193 N.am    1  UNL1       -0.2699
      2 C           1.7170   31.0869    7.6391 C.3     1  UNL1        0.1003
      3 C           1.9907   31.8637    6.3391 C.3     1  UNL1        0.0654
      4 C           3.4507   32.1297    6.2694 C.ar    1  UNL1        0.0432
      5 C           4.2586   32.2304    7.3855 C.ar    1  UNL1        0.0666
      6 C           5.5832   32.4702    6.9218 C.ar    1  UNL1        0.0212
      7 C           6.8262   32.6499    7.5645 C.ar    1  UNL1        0.0016
      8 C           7.9826   32.8353    6.8018 C.ar    1  UNL1        0.0001
      9 C           7.9171   32.8431    5.4126 C.ar    1  UNL1        0.0015
     10 C           6.6982   32.6747    4.7482 C.ar    1  UNL1        0.0172
     11 C           5.5378   32.4935    5.5205 C.ar    1  UNL1        0.0598
     12 N           4.2165   32.3123    5.1510 N.ar    1  UNL1       -0.3284
     13 C           3.7264   32.3033    3.7903 C.3     1  UNL1        0.1301
     14 C           3.7378   32.0843    8.7432 C.2     1  UNL1        0.2504
     15 O           4.4186   32.3446    9.7313 O.2     1  UNL1       -0.2699
     16 C           1.8951   31.2604   10.1302 C.3     1  UNL1        0.1407
     17 C          -0.4109   28.8526   10.0469 C.3     1  UNL1        0.0511
     18 C           1.0483   28.7972   10.2917 C.ar    1  UNL1        0.0505
     19 N           1.7111   27.6309   10.5770 N.ar    1  UNL1       -0.3384
     20 H           1.3003   26.7102   10.6456 H       1  UNL1        0.1672
     21 C           3.0281   27.9339   10.7635 C.ar    1  UNL1        0.1745
     22 N           3.2519   29.2185   10.6201 N.ar    1  UNL1       -0.2271
     23 C           2.0230   29.7802   10.3256 C.ar    1  UNL1        0.0921
@<TRIPOS>BOND
     1    17    18    1
     2    18    19   ar
     3    18    23   ar
     4    19    20    1
     5    19    21   ar
     6    21    22   ar
     7    22    23   ar
     8    23    16    1
     9    16     1    1
    10     1     2    1
    11     1    14   am
    12     2     3    1
    13     3     4    1
    14     4     5   ar
    15     4    12   ar
    16     5     6   ar
    17     5    14    1
    18     6     7   ar
    19     6    11   ar
    20     7     8   ar
    21     8     9   ar
    22     9    10   ar
    23    10    11   ar
    24    11    12   ar
    25    12    13    1
    26    14    15    2
#	Name:			CHEMBL1113
#	Creating user name:	trannguyen
#	Creation time:		Tue Feb  8 18:26:14 2022


#	Modifying user name:	trannguyen
#	Modification time:	Tue Feb  8 18:26:14 2022

@<TRIPOS>MOLECULE
CHEMBL1113
 23 26 0 0 0
SMALL
GASTEIGER

@<TRIPOS>ATOM
      1 CL          2.6825   28.2357   11.2636 Cl      1  UNL1       -0.0822
      2 C           2.4159   29.4231   10.0475 C.ar    1  UNL1        0.0581
      3 C           1.1602   29.5320    9.4515 C.ar    1  UNL1        0.0145
      4 C           0.9445   30.4947    8.4646 C.ar    1  UNL1        0.0386
      5 C           1.9881   31.3387    8.0737 C.ar    1  UNL1        0.1526
      6 C           3.2352   31.2519    8.6936 C.ar    1  UNL1        0.1175
      7 C           3.4530   30.2762    9.6767 C.ar    1  UNL1        0.0219
      8 C           4.3430   32.2043    8.3647 C.2     1  UNL1        0.3270
      9 N           4.6173   32.6026    7.1528 N.2     1  UNL1       -0.0369
     10 C           3.8870   32.2239    6.0176 C.ar    1  UNL1        0.2273
     11 C           4.5997   32.0550    4.8252 C.ar    1  UNL1        0.0498
     12 C           3.9449   31.7636    3.6248 C.ar    1  UNL1        0.0040
     13 C           2.5564   31.6552    3.5978 C.ar    1  UNL1        0.0034
     14 C           1.8270   31.8308    4.7719 C.ar    1  UNL1        0.0414
     15 C           2.4931   32.0993    5.9728 C.ar    1  UNL1        0.1879
     16 O           1.7107   32.2570    7.0931 O.3     1  UNL1       -0.4495
     17 N           5.1480   32.6487    9.4231 N.pl3   1  UNL1       -0.1876
     18 C           5.2073   34.1042    9.6969 C.3     1  UNL1        0.2195
     19 C           5.8007   34.3718   11.0960 C.3     1  UNL1        0.1202
     20 N           7.1312   33.7702   11.2891 N.3     1  UNL1       -0.2906
     21 C           7.0647   32.3300   10.9786 C.3     1  UNL1        0.1202
     22 C           6.4837   32.0261    9.5818 C.3     1  UNL1        0.2195
     23 H           7.4176   33.8897   12.2599 H       1  UNL1        0.1235
@<TRIPOS>BOND
     1     1     2    1
     2     2     3   ar
     3     2     7   ar
     4     3     4   ar
     5     4     5   ar
     6     5     6   ar
     7     5    16    1
     8     6     7   ar
     9     6     8    1
    10     8    17    1
    11     8     9    2
    12    17    18    1
    13    17    22    1
    14    18    19    1
    15    19    20    1
    16    20    21    1
    17    20    23    1
    18    21    22    1
    19     9    10    1
    20    10    11   ar
    21    10    15   ar
    22    11    12   ar
    23    12    13   ar
    24    13    14   ar
    25    14    15   ar
    26    15    16    1
#	Name:			CHEMBL1117
#	Creating user name:	trannguyen
#	Creation time:		Tue Feb  8 18:26:14 2022


#	Modifying user name:	trannguyen
#	Modification time:	Tue Feb  8 18:26:14 2022

@<TRIPOS>MOLECULE
CHEMBL1117
 42 46 0 0 0
SMALL
GASTEIGER

@<TRIPOS>ATOM
      1 C           3.3660   33.1248    5.2913 C.3     1  UNL1        0.1458
      2 O           3.1137   34.3842    5.9200 O.3     1  UNL1       -0.3794
      3 C           4.7163   33.1826    4.5681 C.3     1  UNL1        0.0634
      4 C           5.9274   32.8883    5.4410 C.ar    1  UNL1        0.0156
      5 C           7.2117   33.1491    4.9337 C.ar    1  UNL1        0.1328
      6 O           7.2789   33.7717    3.7111 O.3     1  UNL1       -0.5057
      7 C           8.3674   32.7945    5.6472 C.ar    1  UNL1        0.0783
      8 C           8.2453   32.1270    6.8659 C.ar    1  UNL1        0.0783
      9 C           6.9635   31.8902    7.3988 C.ar    1  UNL1        0.1349
     10 O           6.7960   31.2451    8.6009 O.3     1  UNL1       -0.5057
     11 C           5.7997   32.2944    6.7163 C.ar    1  UNL1        0.0376
     12 C           4.4340   32.1799    7.3766 C.3     1  UNL1        0.1454
     13 C           3.3476   31.9873    6.3202 C.3     1  UNL1        0.0687
     14 C           9.4598   31.6880    7.5838 C.2     1  UNL1        0.1988
     15 O           9.3460   31.0852    8.6522 O.2     1  UNL1       -0.2865
     16 C          10.7938   31.9621    7.0168 C.ar    1  UNL1        0.0421
     17 C          11.9458   31.5205    7.6832 C.ar    1  UNL1        0.0033
     18 C          13.2070   31.7874    7.1490 C.ar    1  UNL1        0.0001
     19 C          13.3242   32.4922    5.9507 C.ar    1  UNL1        0.0001
     20 C          12.1790   32.9304    5.2855 C.ar    1  UNL1        0.0033
     21 C          10.9120   32.6618    5.8210 C.ar    1  UNL1        0.0421
     22 C           9.7056   33.1222    5.1167 C.2     1  UNL1        0.1988
     23 O           9.8025   33.7926    4.0855 O.2     1  UNL1       -0.2865
     24 H           3.8047   34.5286    6.6000 H       1  UNL1        0.2108
     25 H           8.2176   34.0019    3.5237 H       1  UNL1        0.2922
     26 H           7.6823   30.9985    8.9540 H       1  UNL1        0.2922
     27 C           2.3952   31.7050    3.3322 C.3     1  UNL1        0.0748
     28 C           2.2443   32.8807    4.2646 C.2     1  UNL1        0.1753
     29 O           1.2413   33.5979    4.2114 O.2     1  UNL1       -0.2936
     30 O           4.2694   33.3983    8.1243 O.3     1  UNL1       -0.3283
     31 C           4.1948   33.2766    9.5481 C.3     1  UNL1        0.2368
     32 C           2.8736   33.7305   10.1474 C.3     1  UNL1        0.0793
     33 C           1.7464   32.8773    9.5723 C.3     1  UNL1        0.0855
     34 N           0.4558   33.3064   10.1555 N.3     1  UNL1       -0.3201
     35 C           2.0188   31.3867    9.8583 C.3     1  UNL1        0.1517
     36 O           1.7292   31.1394   11.2435 O.3     1  UNL1       -0.3806
     37 C           3.4687   30.9827    9.5015 C.3     1  UNL1        0.1458
     38 C           3.8530   29.6471   10.1373 C.3     1  UNL1        0.0348
     39 O           4.4544   31.9285    9.9375 O.3     1  UNL1       -0.3304
     40 H           0.1897   34.1929    9.7216 H       1  UNL1        0.1189
     41 H           0.6005   33.5387   11.1408 H       1  UNL1        0.1189
     42 H           0.8091   31.4509   11.3483 H       1  UNL1        0.2105
@<TRIPOS>BOND
     1    27    28    1
     2    28    29    2
     3     1     3    1
     4     1    13    1
     5     1     2    1
     6     1    28    1
     7     2    24    1
     8     3     4    1
     9     4     5   ar
    10     4    11   ar
    11     5     6    1
    12     5     7   ar
    13     6    25    1
    14     7     8   ar
    15     7    22    1
    16     8     9   ar
    17     8    14    1
    18     9    10    1
    19     9    11   ar
    20    10    26    1
    21    11    12    1
    22    12    13    1
    23    12    30    1
    24    30    31    1
    25    31    32    1
    26    31    39    1
    27    32    33    1
    28    33    34    1
    29    33    35    1
    30    34    40    1
    31    34    41    1
    32    35    36    1
    33    35    37    1
    34    36    42    1
    35    37    38    1
    36    37    39    1
    37    14    15    2
    38    14    16    1
    39    16    17   ar
    40    16    21   ar
    41    17    18   ar
    42    18    19   ar
    43    19    20   ar
    44    20    21   ar
    45    21    22    1
    46    22    23    2
#	Name:			CHEMBL111861
#	Creating user name:	trannguyen
#	Creation time:		Tue Feb  8 18:26:14 2022


#	Modifying user name:	trannguyen
#	Modification time:	Tue Feb  8 18:26:14 2022

@<TRIPOS>MOLECULE
CHEMBL111861
 29 32 0 0 0
SMALL
GASTEIGER

@<TRIPOS>ATOM
      1 C           5.4832   30.9609    3.4515 C.3     1  UNL1        0.0032
      2 C           6.0604   32.1716    4.2174 C.3     1  UNL1        0.0359
      3 C           6.4512   31.6534    5.6324 C.3     1  UNL1        0.0671
      4 C           6.2410   32.6582    6.7419 C.2     1  UNL1        0.1506
      5 O           7.1615   32.9230    7.5135 O.2     1  UNL1       -0.2961
      6 C           4.8658   33.3195    6.8919 C.3     1  UNL1        0.0610
      7 C           4.1109   33.3475    5.5378 C.3     1  UNL1        0.0076
      8 C           3.0097   32.2751    5.3765 C.3     1  UNL1        0.0048
      9 C           3.0074   31.1898    6.4444 C.3     1  UNL1        0.0218
     10 C           2.9255   31.8509    7.7827 C.2     1  UNL1       -0.0464
     11 C           1.8559   31.6660    8.5804 C.2     1  UNL1       -0.0060
     12 C           1.6175   32.4477    9.8351 C.3     1  UNL1        0.1319
     13 O           0.2174   32.6901    9.9382 O.3     1  UNL1       -0.3801
     14 C           2.3466   33.7991    9.8996 C.3     1  UNL1        0.0341
     15 C           3.2591   34.1032    8.7000 C.3     1  UNL1        0.0070
     16 C           4.0117   32.8611    8.1348 C.3     1  UNL1        0.0216
     17 C           4.9074   32.2702    9.2500 C.3     1  UNL1        0.0045
     18 C           5.0679   33.3696    4.3168 C.3     1  UNL1        0.0035
     19 C           5.9581   34.6425    4.2804 C.3     1  UNL1        0.0030
     20 C           7.4008   34.1789    4.0876 C.3     1  UNL1        0.0342
     21 C           7.2750   32.8008    3.4427 C.3     1  UNL1        0.1417
     22 O           8.4688   32.0581    3.6549 O.3     1  UNL1       -0.3797
     23 H          -0.2058   31.8329   10.1134 H       1  UNL1        0.2108
     24 H           8.3025   31.1245    3.4338 H       1  UNL1        0.2108
     25 C           7.0813   33.0102    1.9071 C.2     1  UNL1        0.2038
     26 O           6.2983   33.8340    1.4374 O.2     1  UNL1       -0.2910
     27 C           7.9507   32.1449    0.9844 C.3     1  UNL1        0.2044
     28 O           7.5514   30.7830    0.9439 O.3     1  UNL1       -0.3749
     29 H           7.4378   30.4936    1.8678 H       1  UNL1        0.2110
@<TRIPOS>BOND
     1     2     1    1
     2     2     3    1
     3     2    18    1
     4     2    21    1
     5     3     4    1
     6     4     5    2
     7     4     6    1
     8     6     7    1
     9     6    16    1
    10     7     8    1
    11     7    18    1
    12     8     9    1
    13     9    10    1
    14    10    11    2
    15    10    16    1
    16    11    12    1
    17    12    14    1
    18    12    13    1
    19    13    23    1
    20    14    15    1
    21    15    16    1
    22    16    17    1
    23    18    19    1
    24    19    20    1
    25    20    21    1
    26    21    22    1
    27    21    25    1
    28    22    24    1
    29    25    26    2
    30    25    27    1
    31    27    28    1
    32    28    29    1
#	Name:			CHEMBL1123
#	Creating user name:	trannguyen
#	Creation time:		Tue Feb  8 18:26:14 2022


#	Modifying user name:	trannguyen
#	Modification time:	Tue Feb  8 18:26:14 2022

@<TRIPOS>MOLECULE
CHEMBL1123
 22 23 0 0 0
SMALL
GASTEIGER

@<TRIPOS>ATOM
      1 C           4.2972   32.9628    5.2525 C.3     1  UNL1        0.0896
      2 C           3.8096   31.5196    4.8820 C.3     1  UNL1        0.0106
      3 C           2.2890   31.3362    4.9843 C.3     1  UNL1        0.0005
      4 C           1.5514   32.3677    4.1477 C.3     1  UNL1        0.0000
      5 C           1.9462   33.7824    4.5439 C.3     1  UNL1        0.0005
      6 C           3.4588   33.9859    4.4511 C.3     1  UNL1        0.0106
      7 C           5.8608   33.0737    5.0011 C.3     1  UNL1        0.0100
      8 C           6.6058   31.7342    4.7864 C.3     1  UNL1        0.0005
      9 C           6.6456   31.2142    3.3490 C.3     1  UNL1        0.0000
     10 C           7.0870   32.2690    2.3476 C.3     1  UNL1        0.0000
     11 C           6.3211   33.5759    2.4945 C.3     1  UNL1        0.0000
     12 C           6.3313   34.0881    3.9302 C.3     1  UNL1        0.0005
     13 C           4.0450   33.1088    6.7621 C.2     1  UNL1        0.3159
     14 O           3.6167   34.1317    7.2917 O.2     1  UNL1       -0.2501
     15 O           4.3121   31.9633    7.4431 O.3     1  UNL1       -0.4470
     16 C           4.1970   32.0524    8.8740 C.3     1  UNL1        0.2257
     17 C           4.3409   30.6513    9.4926 C.3     1  UNL1        0.1201
     18 N           3.2379   30.2548   10.3875 N.3     1  UNL1       -0.2696
     19 C           1.0481   30.1478    9.0951 C.3     1  UNL1        0.0188
     20 C           1.9577   30.8994   10.0624 C.3     1  UNL1        0.0722
     21 C           3.1614   28.7862   10.4818 C.3     1  UNL1        0.0722
     22 C           4.4132   28.0663    9.9860 C.3     1  UNL1        0.0188
@<TRIPOS>BOND
     1    19    20    1
     2    20    18    1
     3    18    21    1
     4    18    17    1
     5    21    22    1
     6    17    16    1
     7    16    15    1
     8    15    13    1
     9    13    14    2
    10    13     1    1
    11     1     7    1
    12     1     2    1
    13     1     6    1
    14     7     8    1
    15     7    12    1
    16     8     9    1
    17     9    10    1
    18    10    11    1
    19    11    12    1
    20     2     3    1
    21     3     4    1
    22     4     5    1
    23     5     6    1
#	Name:			CHEMBL112
#	Creating user name:	trannguyen
#	Creation time:		Tue Feb  8 18:26:14 2022


#	Modifying user name:	trannguyen
#	Modification time:	Tue Feb  8 18:26:14 2022

@<TRIPOS>MOLECULE
CHEMBL112
 13 13 0 0 0
SMALL
GASTEIGER

@<TRIPOS>ATOM
      1 C           2.7555   30.0749    9.5395 C.ar    1  UNL1        0.0505
      2 C           1.4744   29.7112    9.9625 C.ar    1  UNL1        0.0178
      3 C           1.2647   28.5084   10.6470 C.ar    1  UNL1        0.0379
      4 C           2.3406   27.6689   10.9066 C.ar    1  UNL1        0.1338
      5 O           2.1804   26.4909   11.5725 O.3     1  UNL1       -0.5055
      6 C           3.6200   28.0108   10.4915 C.ar    1  UNL1        0.0379
      7 C           3.8271   29.2124    9.8092 C.ar    1  UNL1        0.0178
      8 H           1.2424   26.3946   11.8064 H       1  UNL1        0.2922
      9 C           3.3988   33.5838    8.3098 C.3     1  UNL1        0.0949
     10 C           2.9907   32.5616    9.3416 C.2     1  UNL1        0.2266
     11 O           2.6840   32.9078   10.4769 O.2     1  UNL1       -0.2748
     12 N           3.0491   31.2697    8.8508 N.am    1  UNL1       -0.2839
     13 H           3.3448   31.1617    7.8887 H       1  UNL1        0.1549
@<TRIPOS>BOND
     1     9    10    1
     2    10    11    2
     3    10    12   am
     4    12     1    1
     5    12    13    1
     6     1     2   ar
     7     1     7   ar
     8     2     3   ar
     9     3     4   ar
    10     4     5    1
    11     4     6   ar
    12     5     8    1
    13     6     7   ar
#	Name:			CHEMBL1130
#	Creating user name:	trannguyen
#	Creation time:		Tue Feb  8 18:26:14 2022


#	Modifying user name:	trannguyen
#	Modification time:	Tue Feb  8 18:26:14 2022

@<TRIPOS>MOLECULE
CHEMBL1130
 20 21 0 0 0
SMALL
GASTEIGER

@<TRIPOS>ATOM
      1 C           2.6195   31.1895    4.7560 C.3     1  UNL1        0.0348
      2 C           2.2775   31.8679    6.0698 C.3     1  UNL1        0.1467
      3 O           1.4851   30.9839    6.8799 O.3     1  UNL1       -0.3334
      4 C           1.6985   31.3629    8.2549 C.3     1  UNL1        0.2383
      5 C           2.8871   32.3496    8.2977 C.3     1  UNL1        0.1895
      6 O           2.4422   33.7089    8.4637 O.3     1  UNL1       -0.3779
      7 C           3.4996   32.1925    6.9162 C.3     1  UNL1        0.1687
      8 O           4.1770   33.3654    6.4903 O.3     1  UNL1       -0.3794
      9 H           2.0839   33.7686    9.3723 H       1  UNL1        0.2106
     10 H           3.7147   34.1083    6.9334 H       1  UNL1        0.2105
     11 N           1.8980   30.1914    9.1021 N.ar    1  UNL1       -0.2528
     12 C           3.1557   29.7722    9.4973 C.ar    1  UNL1        0.1165
     13 C           3.3222   28.7019   10.2740 C.ar    1  UNL1        0.2130
     14 F           4.5362   28.2798   10.6708 F       1  UNL1       -0.1975
     15 C           2.1470   27.9371   10.7323 C.ar    1  UNL1        0.2901
     16 O           2.2342   26.9548   11.4591 O.2     1  UNL1       -0.2646
     17 N           0.9399   28.4154   10.2907 N.ar    1  UNL1       -0.2725
     18 H           0.1163   27.9199   10.5966 H       1  UNL1        0.1735
     19 C           0.7454   29.5244    9.5080 C.ar    1  UNL1        0.3324
     20 O          -0.3882   29.8998    9.2148 O.2     1  UNL1       -0.2464
@<TRIPOS>BOND
     1     1     2    1
     2     2     3    1
     3     2     7    1
     4     3     4    1
     5     4     5    1
     6     4    11    1
     7    11    12   ar
     8    11    19   ar
     9    12    13   ar
    10    13    14    1
    11    13    15   ar
    12    15    16    2
    13    15    17   ar
    14    17    18    1
    15    17    19   ar
    16    19    20    2
    17     5     6    1
    18     5     7    1
    19     6     9    1
    20     7     8    1
    21     8    10    1
#	Name:			CHEMBL113
#	Creating user name:	trannguyen
#	Creation time:		Tue Feb  8 18:26:14 2022


#	Modifying user name:	trannguyen
#	Modification time:	Tue Feb  8 18:26:14 2022

@<TRIPOS>MOLECULE
CHEMBL113
 14 15 0 0 0
SMALL
GASTEIGER

@<TRIPOS>ATOM
      1 C           2.8730   32.3527    7.4174 C.3     1  UNL1        0.1383
      2 N           2.9002   31.3116    8.4256 N.ar    1  UNL1       -0.2454
      3 C           1.6961   30.6892    8.7653 C.ar    1  UNL1        0.2832
      4 O           0.6077   30.9663    8.2709 O.2     1  UNL1       -0.2652
      5 C           1.8560   29.6842    9.7578 C.ar    1  UNL1        0.1528
      6 C           3.0577   29.3679   10.3171 C.ar    1  UNL1        0.1696
      7 N           2.9400   28.3719   11.2391 N.ar    1  UNL1       -0.2063
      8 C           1.6552   28.0760   11.2440 C.ar    1  UNL1        0.1802
      9 N           0.9559   28.8509   10.3575 N.ar    1  UNL1       -0.3021
     10 C          -0.4621   28.7923   10.1081 C.3     1  UNL1        0.1322
     11 N           4.2132   30.0136    9.9509 N.ar    1  UNL1       -0.2628
     12 C           5.4950   29.6854   10.5398 C.3     1  UNL1        0.1366
     13 C           4.1598   31.0167    8.9821 C.ar    1  UNL1        0.3350
     14 O           5.1755   31.6223    8.6253 O.2     1  UNL1       -0.2461
@<TRIPOS>BOND
     1     1     2    1
     2     2     3   ar
     3     2    13   ar
     4     3     4    2
     5     3     5   ar
     6     5     6   ar
     7     5     9   ar
     8     6     7   ar
     9     6    11   ar
    10     7     8   ar
    11     8     9   ar
    12     9    10    1
    13    11    12    1
    14    11    13   ar
    15    13    14    2
#	Name:			CHEMBL1140
#	Creating user name:	trannguyen
#	Creation time:		Tue Feb  8 18:26:14 2022


#	Modifying user name:	trannguyen
#	Modification time:	Tue Feb  8 18:26:14 2022

@<TRIPOS>MOLECULE
CHEMBL1140
 11 11 0 0 0
SMALL
GASTEIGER

@<TRIPOS>ATOM
      1 C           2.7195   28.9519   10.5590 C.ar    1  UNL1        0.0723
      2 C           4.0274   28.5082   10.3520 C.ar    1  UNL1        0.0077
      3 C           4.9783   29.3862    9.8369 C.ar    1  UNL1        0.0208
      4 C           4.5872   30.6850    9.5526 C.ar    1  UNL1        0.0989
      5 N           3.3352   31.1532    9.7548 N.ar    1  UNL1       -0.2422
      6 C           2.4319   30.2772   10.2629 C.ar    1  UNL1        0.1033
      7 N           0.3904   28.3202   10.9295 N.am    1  UNL1       -0.3253
      8 C           1.7120   28.0146   11.1013 C.2     1  UNL1        0.2443
      9 O           2.0446   26.9730   11.6531 O.2     1  UNL1       -0.2703
     10 H          -0.2686   27.6080   11.2210 H       1  UNL1        0.1453
     11 H           0.0587   29.0155   10.2763 H       1  UNL1        0.1453
@<TRIPOS>BOND
     1     7     8   am
     2     7    10    1
     3     7    11    1
     4     8     9    2
     5     8     1    1
     6     1     2   ar
     7     1     6   ar
     8     2     3   ar
     9     3     4   ar
    10     4     5   ar
    11     5     6   ar
#	Name:			CHEMBL1148
#	Creating user name:	trannguyen
#	Creation time:		Tue Feb  8 18:26:14 2022


#	Modifying user name:	trannguyen
#	Modification time:	Tue Feb  8 18:26:14 2022

@<TRIPOS>MOLECULE
CHEMBL1148
 27 28 0 0 0
SMALL
GASTEIGER

@<TRIPOS>ATOM
      1 C           3.6638   30.3284    9.8180 C.ar    1  UNL1        0.0705
      2 C           4.1435   29.0657   10.1973 C.ar    1  UNL1        0.0366
      3 C           3.2783   27.9840   10.2722 C.ar    1  UNL1        0.1002
      4 N           1.9677   28.0540    9.9763 N.ar    1  UNL1       -0.2408
      5 C           1.4985   29.2792    9.6568 C.ar    1  UNL1        0.1203
      6 C           2.2776   30.4331    9.6244 C.ar    1  UNL1        0.1576
      7 S           1.3811   31.9180    9.3304 S.O2    1  UNL1        0.0795
      8 O          -0.0130   31.6138    9.0734 O.2     1  UNL1       -0.1497
      9 O           1.7586   32.8526   10.3653 O.2     1  UNL1       -0.1497
     10 N           2.0548   32.5427    7.9242 N.am    1  UNL1       -0.1692
     11 C           1.9999   31.9429    6.6702 C.2     1  UNL1        0.3194
     12 O           1.4641   30.8575    6.4873 O.2     1  UNL1       -0.2512
     13 N           2.6209   32.6712    5.6918 N.am    1  UNL1       -0.2894
     14 H           2.4872   33.4478    8.0546 H       1  UNL1        0.1781
     15 H           2.9269   33.6017    5.9260 H       1  UNL1        0.1509
     16 C           2.6486   32.2988    4.2708 C.3     1  UNL1        0.0732
     17 C           3.3125   33.4107    3.4495 C.3     1  UNL1        0.0213
     18 C           3.3960   30.9874    4.0208 C.3     1  UNL1        0.0213
     19 N           4.5807   31.3910    9.6286 N.pl3   1  UNL1       -0.3114
     20 H           4.6634   31.9887   10.4533 H       1  UNL1        0.1523
     21 C           6.5859   32.9761    5.3164 C.3     1  UNL1        0.0311
     22 C           6.6789   32.2009    6.5990 C.ar    1  UNL1       -0.0206
     23 C           7.8773   31.5760    6.9498 C.ar    1  UNL1       -0.0042
     24 C           8.0077   30.9873    8.2038 C.ar    1  UNL1        0.0009
     25 C           6.9327   30.9942    9.1027 C.ar    1  UNL1        0.0146
     26 C           5.6776   31.4989    8.7327 C.ar    1  UNL1        0.0480
     27 C           5.5744   32.1125    7.4711 C.ar    1  UNL1        0.0104
@<TRIPOS>BOND
     1    21    22    1
     2    22    23   ar
     3    22    27   ar
     4    23    24   ar
     5    24    25   ar
     6    25    26   ar
     7    26    19    1
     8    26    27   ar
     9    19     1    1
    10    19    20    1
    11     1     2   ar
    12     1     6   ar
    13     2     3   ar
    14     3     4   ar
    15     4     5   ar
    16     5     6   ar
    17     6     7    1
    18     7     8    2
    19     7     9    2
    20     7    10    1
    21    10    11   am
    22    10    14    1
    23    11    12    2
    24    11    13   am
    25    13    16    1
    26    13    15    1
    27    16    17    1
    28    16    18    1
#	Name:			CHEMBL1149
#	Creating user name:	trannguyen
#	Creation time:		Tue Feb  8 18:26:14 2022


#	Modifying user name:	trannguyen
#	Modification time:	Tue Feb  8 18:26:14 2022

@<TRIPOS>MOLECULE
CHEMBL1149
 12 11 0 0 0
SMALL
GASTEIGER

@<TRIPOS>ATOM
      1 C           2.5176   29.9749   10.1966 C.3     1  UNL1        0.1712
      2 O           3.7153   29.5800   10.8931 O.3     1  UNL1       -0.3784
      3 H           3.4189   29.1189   11.7009 H       1  UNL1        0.2106
      4 C           2.8801   30.4998    8.7797 C.3     1  UNL1        0.1391
      5 C           1.9110   31.8845    6.9319 C.3     1  UNL1        0.1711
      6 N           2.2291   31.8862    8.4195 N.4     1  UNL1        0.3125
      7 C           3.1709   33.0392    8.7127 C.3     1  UNL1        0.1711
      8 C           0.9348   32.0515    9.1977 C.3     1  UNL1        0.1711
      9 C           1.5931   28.7646   10.1367 C.3     1  UNL1        0.0770
     10 C           2.1763   27.6064   10.9322 C.2     1  UNL1        0.0530
     11 O           2.9086   26.8250   10.2710 O.co2   1  UNL1       -0.5491
     12 O           1.9143   27.6342   12.1677 O.co2   1  UNL1       -0.5491
@<TRIPOS>UNITY_ATOM_ATTR
6 1
charge 1
11 1
charge -1
@<TRIPOS>BOND
     1     5     6    1
     2     6     7    1
     3     6     8    1
     4     6     4    1
     5     1     2    1
     6     1     9    1
     7     1     4    1
     8     2     3    1
     9     9    10    1
    10    10    11   ar
    11    10    12   ar
#	Name:			CHEMBL114
#	Creating user name:	trannguyen
#	Creation time:		Tue Feb  8 18:26:14 2022


#	Modifying user name:	trannguyen
#	Modification time:	Tue Feb  8 18:26:14 2022

@<TRIPOS>MOLECULE
CHEMBL114
 55 59 0 0 0
SMALL
GASTEIGER

@<TRIPOS>ATOM
      1 C           6.7186   31.9967    3.6242 C.3     1  UNL1        0.1041
      2 N           7.0627   31.7107    5.0350 N.am    1  UNL1       -0.3019
      3 C           7.6472   32.5782    5.9371 C.2     1  UNL1        0.2409
      4 O           7.9532   33.7256    5.6211 O.2     1  UNL1       -0.2733
      5 H           6.8545   30.7599    5.3082 H       1  UNL1        0.1495
      6 C           8.0137   32.0131    7.3646 C.3     1  UNL1        0.1580
      7 N           6.8265   31.2848    7.8781 N.am    1  UNL1       -0.2932
      8 C           6.2835   31.5026    9.1339 C.2     1  UNL1        0.2639
      9 O           6.7506   32.2837    9.9204 O.2     1  UNL1       -0.2685
     10 H           6.2883   30.7199    7.2231 H       1  UNL1        0.1502
     11 C           5.0347   30.7187    9.4893 C.ar    1  UNL1        0.1344
     12 C           5.2099   29.5315   10.1803 C.ar    1  UNL1        0.0238
     13 C           4.0643   28.7884   10.5050 C.ar    1  UNL1        0.0032
     14 C           2.8105   29.2484   10.1007 C.ar    1  UNL1        0.0177
     15 C           1.6444   28.5215   10.4009 C.ar    1  UNL1        0.0015
     16 C           0.4041   28.9673    9.9558 C.ar    1  UNL1        0.0001
     17 C           0.3283   30.1334    9.2025 C.ar    1  UNL1        0.0015
     18 C           1.4909   30.8638    8.9210 C.ar    1  UNL1        0.0191
     19 C           2.7435   30.4601    9.3687 C.ar    1  UNL1        0.0814
     20 N           3.8386   31.2039    9.0936 N.ar    1  UNL1       -0.2408
     21 C           9.2470   31.0998    7.4142 C.3     1  UNL1        0.1137
     22 C           9.9370   30.9984    8.7578 C.2     1  UNL1        0.2216
     23 N           9.8699   32.0594    9.5841 N.am    1  UNL1       -0.3287
     24 O          10.7055   30.0711    9.0334 O.2     1  UNL1       -0.2753
     25 H           9.1379   32.7623    9.5035 H       1  UNL1        0.1449
     26 H          10.3022   31.9434   10.4932 H       1  UNL1        0.1449
     27 C           7.9799   31.9753    2.6592 C.3     1  UNL1        0.1445
     28 O           8.7004   33.1987    2.9094 O.3     1  UNL1       -0.3813
     29 H           8.0493   33.9200    2.8640 H       1  UNL1        0.2105
     30 C           7.8047   31.7635    1.0971 C.3     1  UNL1        0.1037
     31 C           8.8992   32.4312   -1.0898 C.3     1  UNL1        0.1348
     32 C           8.0191   32.7162   -2.3304 C.3     1  UNL1        0.0254
     33 C           7.4413   34.1394   -2.4765 C.3     1  UNL1        0.0032
     34 C           8.0095   34.9774   -3.6465 C.3     1  UNL1        0.0001
     35 C           9.0001   36.0698   -3.2769 C.3     1  UNL1        0.0000
     36 C           8.4629   36.9651   -2.1822 C.3     1  UNL1        0.0000
     37 C           8.0304   36.2007   -0.9418 C.3     1  UNL1        0.0014
     38 C           7.2672   34.8812   -1.1454 C.3     1  UNL1        0.0161
     39 C           7.3647   33.9782    0.1176 C.3     1  UNL1        0.0725
     40 N           8.3513   32.8793    0.2180 N.3     1  UNL1       -0.2644
     41 N          10.9364   32.6945   -2.5724 N.am    1  UNL1       -0.3064
     42 C          10.3391   32.9873   -1.3548 C.2     1  UNL1        0.2369
     43 O          10.8739   33.7465   -0.5467 O.2     1  UNL1       -0.2737
     44 H          10.4074   32.0994   -3.2001 H       1  UNL1        0.1493
     45 C          13.4070   32.6101   -2.0664 C.3     1  UNL1        0.0196
     46 C          12.2941   33.1610   -2.9810 C.3     1  UNL1        0.0569
     47 C          12.3753   34.6954   -2.8390 C.3     1  UNL1        0.0196
     48 C          12.6337   32.7292   -4.4259 C.3     1  UNL1        0.0196
     49 C           5.8292   33.2631    3.6184 C.3     1  UNL1        0.0484
     50 C           4.3846   33.0267    3.9568 C.ar    1  UNL1       -0.0204
     51 C           3.8313   31.7415    3.9031 C.ar    1  UNL1       -0.0042
     52 C           2.4567   31.5640    4.0641 C.ar    1  UNL1       -0.0003
     53 C           1.6339   32.6624    4.3067 C.ar    1  UNL1       -0.0000
     54 C           2.1921   33.9288    4.4528 C.ar    1  UNL1       -0.0003
     55 C           3.5613   34.1076    4.2886 C.ar    1  UNL1       -0.0042
@<TRIPOS>BOND
     1    45    46    1
     2    46    47    1
     3    46    48    1
     4    46    41    1
     5    41    42   am
     6    41    44    1
     7    42    43    2
     8    31    32    1
     9    31    40    1
    10    31    42    1
    11    32    33    1
    12    33    34    1
    13    33    38    1
    14    34    35    1
    15    35    36    1
    16    36    37    1
    17    37    38    1
    18    38    39    1
    19    39    40    1
    20    40    30    1
    21    30    27    1
    22    27    28    1
    23    28    29    1
    24     1    49    1
    25     1     2    1
    26     1    27    1
    27    49    50    1
    28    50    51   ar
    29    50    55   ar
    30    51    52   ar
    31    52    53   ar
    32    53    54   ar
    33    54    55   ar
    34     2     3   am
    35     2     5    1
    36     3     4    2
    37     6    21    1
    38     6     7    1
    39     6     3    1
    40    21    22    1
    41    22    23   am
    42    22    24    2
    43    23    25    1
    44    23    26    1
    45     7     8   am
    46     7    10    1
    47     8     9    2
    48     8    11    1
    49    11    12   ar
    50    11    20   ar
    51    12    13   ar
    52    13    14   ar
    53    14    15   ar
    54    14    19   ar
    55    15    16   ar
    56    16    17   ar
    57    17    18   ar
    58    18    19   ar
    59    19    20   ar
#	Name:			CHEMBL115307
#	Creating user name:	trannguyen
#	Creation time:		Tue Feb  8 18:26:14 2022


#	Modifying user name:	trannguyen
#	Modification time:	Tue Feb  8 18:26:14 2022

@<TRIPOS>MOLECULE
CHEMBL115307
 31 33 0 0 0
SMALL
GASTEIGER

@<TRIPOS>ATOM
      1 C           4.8627   33.2964    7.6590 C.3     1  UNL1        0.1715
      2 C           3.5002   32.9961    8.2814 C.3     1  UNL1        0.0728
      3 C           3.1054   34.1044    9.2528 C.3     1  UNL1        0.1145
      4 O           2.8162   35.2962    8.5246 O.3     1  UNL1       -0.3843
      5 C           4.2027   34.4284   10.2704 C.3     1  UNL1        0.0338
      6 C           5.6156   34.5672    9.6469 C.3     1  UNL1        0.0276
      7 C           6.6268   34.7703   10.7426 C.2     1  UNL1       -0.0308
      8 C           7.5084   33.8316   11.1104 C.2     1  UNL1       -0.0310
      9 C           7.5585   32.4481   10.5065 C.3     1  UNL1        0.0218
     10 C           8.8820   32.2842    9.7477 C.3     1  UNL1        0.0047
     11 C           6.2835   32.1250    9.6424 C.3     1  UNL1        0.0079
     12 C           5.9777   33.3544    8.7231 C.3     1  UNL1        0.0446
     13 H           2.1456   35.0872    7.8499 H       1  UNL1        0.2103
     14 O           5.1070   32.3837    6.5716 O.3     1  UNL1       -0.4522
     15 C           5.5303   33.0101    5.4212 C.2     1  UNL1        0.3163
     16 O           6.5012   33.7558    5.3503 O.2     1  UNL1       -0.2501
     17 C           4.5690   32.7919    4.2637 C.3     1  UNL1        0.0991
     18 C           3.8175   31.4687    4.4780 C.3     1  UNL1        0.0116
     19 C           2.2079   33.6682    4.6059 C.3     1  UNL1        0.0006
     20 C           3.6095   33.9735    4.0923 C.3     1  UNL1        0.0111
     21 C           6.3484   30.7350    8.9697 C.3     1  UNL1        0.0042
     22 C           5.8341   29.6394    9.9273 C.3     1  UNL1        0.0437
     23 C           4.3691   29.2313    9.7491 C.3     1  UNL1        0.1713
     24 C           4.0750   27.8557   10.3278 C.3     1  UNL1        0.0734
     25 C           2.5795   27.5561   10.2861 C.3     1  UNL1        0.1252
     26 O           2.1944   26.8882   11.4876 O.3     1  UNL1       -0.3838
     27 C           1.7025   28.7736   10.0382 C.3     1  UNL1        0.1388
     28 C           2.2660   30.0018   10.6840 C.2     1  UNL1        0.3194
     29 O           1.5791   30.8005   11.3138 O.2     1  UNL1       -0.2500
     30 O           3.5907   30.2139   10.4766 O.3     1  UNL1       -0.4521
     31 H           2.3220   27.4912   12.2427 H       1  UNL1        0.2104
@<TRIPOS>BOND
     1    19    20    1
     2    17    18    1
     3    17    15    1
     4    17    20    1
     5    15    16    2
     6    15    14    1
     7     1     2    1
     8     1    12    1
     9     1    14    1
    10     2     3    1
    11     3     5    1
    12     3     4    1
    13     4    13    1
    14     5     6    1
    15     6     7    1
    16     6    12    1
    17     7     8    2
    18     8     9    1
    19     9    10    1
    20     9    11    1
    21    11    21    1
    22    11    12    1
    23    21    22    1
    24    22    23    1
    25    23    24    1
    26    23    30    1
    27    24    25    1
    28    25    27    1
    29    25    26    1
    30    26    31    1
    31    27    28    1
    32    28    29    2
    33    28    30    1
#	Name:			CHEMBL115769
#	Creating user name:	trannguyen
#	Creation time:		Tue Feb  8 18:26:14 2022


#	Modifying user name:	trannguyen
#	Modification time:	Tue Feb  8 18:26:14 2022

@<TRIPOS>MOLECULE
CHEMBL115769
 28 31 0 0 0
SMALL
GASTEIGER

@<TRIPOS>ATOM
      1 C           6.7023   33.2273    7.1200 C.ar    1  UNL1        0.1443
      2 C           7.9973   33.4462    7.7911 C.ar    1  UNL1        0.0689
      3 C           8.2479   32.9813    9.0404 C.ar    1  UNL1        0.1067
      4 N           9.4596   33.1817    9.6526 N.pl3   1  UNL1       -0.3440
      5 N           7.2588   32.2848    9.6911 N.ar    1  UNL1       -0.3275
      6 H           7.3939   32.0495   10.6619 H       1  UNL1        0.1685
      7 C           6.0380   32.0618    9.1247 C.ar    1  UNL1        0.1443
      8 N           5.0141   31.4369    9.6371 N.ar    1  UNL1       -0.2284
      9 C           4.0153   31.4745    8.6518 C.ar    1  UNL1        0.0830
     10 C           4.3865   32.1214    7.5094 C.ar    1  UNL1        0.0236
     11 C           5.7407   32.5511    7.7590 C.ar    1  UNL1        0.0694
     12 H          10.2108   33.4178    9.0099 H       1  UNL1        0.1437
     13 H           9.7169   32.4109   10.2619 H       1  UNL1        0.1437
     14 C           2.7263   30.8011    8.9567 C.ar    1  UNL1        0.0178
     15 C           1.4765   31.3890    8.7094 C.ar    1  UNL1        0.0038
     16 C           0.2868   30.7411    9.0550 C.ar    1  UNL1        0.0297
     17 C           0.3358   29.4974    9.6649 C.ar    1  UNL1        0.1401
     18 F          -0.8045   28.8832   10.0049 F       1  UNL1       -0.2042
     19 C           1.5525   28.8855    9.9276 C.ar    1  UNL1        0.0297
     20 C           2.7404   29.5371    9.5785 C.ar    1  UNL1        0.0038
     21 C           3.6174   32.3231    6.2808 C.ar    1  UNL1        0.0047
     22 C           3.0857   33.5733    5.9657 C.ar    1  UNL1        0.0207
     23 C           2.3654   33.7029    4.7885 C.ar    1  UNL1        0.0989
     24 N           2.1536   32.6914    3.9187 N.ar    1  UNL1       -0.2423
     25 C           2.6745   31.4909    4.2478 C.ar    1  UNL1        0.0989
     26 C           3.3962   31.2565    5.4064 C.ar    1  UNL1        0.0207
     27 C           6.9331   32.9720    4.7217 C.3     1  UNL1        0.2525
     28 O           6.4776   33.7157    5.8444 O.3     1  UNL1       -0.4712
@<TRIPOS>BOND
     1    27    28    1
     2    28     1    1
     3     1     2   ar
     4     1    11   ar
     5     2     3   ar
     6     3     4    1
     7     3     5   ar
     8     4    12    1
     9     4    13    1
    10     5     6    1
    11     5     7   ar
    12     7     8   ar
    13     7    11    1
    14     8     9   ar
    15     9    14    1
    16     9    10   ar
    17    14    15   ar
    18    14    20   ar
    19    15    16   ar
    20    16    17   ar
    21    17    18    1
    22    17    19   ar
    23    19    20   ar
    24    10    21    1
    25    10    11   ar
    26    21    22   ar
    27    21    26   ar
    28    22    23   ar
    29    23    24   ar
    30    24    25   ar
    31    25    26   ar
#	Name:			CHEMBL1159650
#	Creating user name:	trannguyen
#	Creation time:		Tue Feb  8 18:26:14 2022


#	Modifying user name:	trannguyen
#	Modification time:	Tue Feb  8 18:26:14 2022

@<TRIPOS>MOLECULE
CHEMBL1159650
 33 36 0 0 0
SMALL
GASTEIGER

@<TRIPOS>ATOM
      1 C           9.2872   35.3339   -5.3987 C.3     1  UNL1        0.1871
      2 C          10.1195   36.1951   -4.3889 C.3     1  UNL1        0.0437
      3 C          11.1042   37.2424   -4.9119 C.3     1  UNL1        0.0040
      4 C           9.0221   36.8703   -3.5629 C.3     1  UNL1        0.0041
      5 C           7.9108   37.2544   -4.5499 C.3     1  UNL1        0.0065
      6 C           7.8878   38.7694   -4.9425 C.3     1  UNL1        0.0335
      7 C           7.6400   39.6319   -3.6843 C.3     1  UNL1        0.0071
      8 C           7.4236   41.1016   -4.0059 C.3     1  UNL1        0.0226
      9 C           6.2607   41.2275   -4.9459 C.2     1  UNL1       -0.0354
     10 C           5.1540   41.8951   -4.5756 C.2     1  UNL1        0.0339
     11 C           3.9678   41.9749   -5.4499 C.2     1  UNL1        0.1948
     12 O           2.9729   42.6062   -5.1159 O.2     1  UNL1       -0.2866
     13 C           4.0274   41.2521   -6.7343 C.2     1  UNL1        0.0378
     14 C           5.1379   40.6040   -7.1130 C.2     1  UNL1       -0.0171
     15 C           6.4307   40.5176   -6.2997 C.3     1  UNL1        0.0638
     16 C           7.5184   41.3005   -7.0726 C.3     1  UNL1        0.0112
     17 C           6.7983   38.9971   -6.0380 C.3     1  UNL1        0.1644
     18 F           5.6479   38.4327   -5.4916 F       1  UNL1       -0.2369
     19 C           7.1123   38.1291   -7.3035 C.3     1  UNL1        0.1409
     20 O           7.5015   38.8795   -8.4513 O.3     1  UNL1       -0.3817
     21 C           8.2039   37.0678   -7.0737 C.3     1  UNL1        0.0358
     22 C           8.0464   36.2673   -5.7663 C.3     1  UNL1        0.0426
     23 C           6.7426   35.4233   -5.8711 C.3     1  UNL1        0.0040
     24 H           7.6094   38.2586   -9.1951 H       1  UNL1        0.2104
     25 C          10.0889   34.8160   -6.6384 C.2     1  UNL1        0.2028
     26 O          11.2384   35.2065   -6.8696 O.2     1  UNL1       -0.2911
     27 C           9.4066   33.8866   -7.6303 C.3     1  UNL1        0.1626
     28 CL          9.6209   34.4792   -9.2855 Cl      1  UNL1       -0.1051
     29 O           8.7182   34.2426   -4.6064 O.3     1  UNL1       -0.4486
     30 C           9.4856   33.3644   -3.9422 C.2     1  UNL1        0.3171
     31 O          10.4384   32.7525   -4.4409 O.2     1  UNL1       -0.2501
     32 C           7.5468   33.6235   -2.4865 C.3     1  UNL1        0.0122
     33 C           9.0135   33.2503   -2.5338 C.3     1  UNL1        0.1096
@<TRIPOS>BOND
     1    32    33    1
     2    33    30    1
     3    30    31    2
     4    30    29    1
     5     1     2    1
     6     1    22    1
     7     1    29    1
     8     1    25    1
     9    25    26    2
    10    25    27    1
    11    27    28    1
    12     2     4    1
    13     2     3    1
    14     4     5    1
    15     5     6    1
    16     5    22    1
    17     6     7    1
    18     6    17    1
    19     7     8    1
    20     8     9    1
    21     9    10    2
    22     9    15    1
    23    10    11    1
    24    11    13    1
    25    11    12    2
    26    13    14    2
    27    14    15    1
    28    15    17    1
    29    15    16    1
    30    17    19    1
    31    17    18    1
    32    19    21    1
    33    19    20    1
    34    20    24    1
    35    21    22    1
    36    22    23    1
#	Name:			CHEMBL115
#	Creating user name:	trannguyen
#	Creation time:		Tue Feb  8 18:26:14 2022


#	Modifying user name:	trannguyen
#	Modification time:	Tue Feb  8 18:26:14 2022

@<TRIPOS>MOLECULE
CHEMBL115
 49 53 0 0 0
SMALL
GASTEIGER

@<TRIPOS>ATOM
      1 C           5.6574   33.7687   10.3165 C.3     1  UNL1        0.1269
      2 O           6.5602   34.2498   11.2882 O.3     1  UNL1       -0.3830
      3 H           6.6159   33.5366   11.9669 H       1  UNL1        0.2104
      4 C           6.4683   33.0635    9.2042 C.3     1  UNL1        0.1021
      5 C           9.0161   33.1765    8.8246 C.3     1  UNL1        0.1510
      6 C           8.8310   33.5325    7.3408 C.3     1  UNL1        0.0980
      7 N           8.6575   32.3016    6.5177 N.3     1  UNL1       -0.2661
      8 C           7.7396   31.3168    7.1515 C.3     1  UNL1        0.0899
      9 C           7.8408   31.1626    8.7029 C.3     1  UNL1        0.0901
     10 N           7.8353   32.4733    9.4342 N.3     1  UNL1       -0.2621
     11 N           8.9789   35.4931    9.6849 N.am    1  UNL1       -0.3063
     12 C           9.6659   34.2761    9.6932 C.2     1  UNL1        0.2383
     13 O          10.6929   34.1213   10.3122 O.2     1  UNL1       -0.2736
     14 H           8.0781   35.5192    9.2319 H       1  UNL1        0.1493
     15 C           8.2537   37.7492   10.2298 C.3     1  UNL1        0.0196
     16 C           9.3825   36.7156   10.4141 C.3     1  UNL1        0.0569
     17 C          10.6799   37.3460    9.8918 C.3     1  UNL1        0.0196
     18 C           9.5154   36.4081   11.9150 C.3     1  UNL1        0.0196
     19 C           8.2303   32.6882    5.1569 C.3     1  UNL1        0.1008
     20 C           6.8003   32.3417    4.8311 C.ar    1  UNL1        0.0130
     21 C           5.7340   32.9600    5.4957 C.ar    1  UNL1        0.0002
     22 C           4.4270   32.5766    5.2201 C.ar    1  UNL1        0.0204
     23 C           4.2243   31.5944    4.2669 C.ar    1  UNL1        0.0989
     24 N           5.2218   30.9900    3.5852 N.ar    1  UNL1       -0.2426
     25 C           6.4850   31.3722    3.8868 C.ar    1  UNL1        0.0959
     26 C           4.9432   35.0316    9.7750 C.3     1  UNL1        0.0401
     27 C           3.3895   34.9973    9.8204 C.3     1  UNL1        0.0833
     28 C           2.8397   33.5477    9.7542 C.2     1  UNL1        0.2226
     29 O           2.5549   32.9012   10.7321 O.2     1  UNL1       -0.2751
     30 N           2.6985   33.0693    8.4652 N.am    1  UNL1       -0.3001
     31 H           3.0301   33.6030    7.6752 H       1  UNL1        0.1498
     32 C           2.1856   31.7475    8.1270 C.3     1  UNL1        0.1211
     33 C           2.7139   30.6507    9.0190 C.ar    1  UNL1       -0.0060
     34 C           4.0362   30.2816    9.2195 C.ar    1  UNL1       -0.0029
     35 C           4.3177   29.1847   10.0397 C.ar    1  UNL1       -0.0003
     36 C           3.2816   28.4700   10.6562 C.ar    1  UNL1       -0.0003
     37 C           1.9510   28.8191   10.4257 C.ar    1  UNL1       -0.0044
     38 C           1.6843   29.8949    9.5893 C.ar    1  UNL1       -0.0220
     39 C           0.3454   30.3183    9.0772 C.3     1  UNL1        0.0573
     40 C           0.6486   31.6796    8.4237 C.3     1  UNL1        0.1368
     41 O           0.2603   32.7423    9.3244 O.3     1  UNL1       -0.3821
     42 H          -0.6755   32.5972    9.5493 H       1  UNL1        0.2104
     43 C           2.6730   35.8621    8.7507 C.3     1  UNL1        0.0355
     44 C           1.9130   37.0539    9.3044 C.ar    1  UNL1       -0.0217
     45 C           2.0725   38.3203    8.7251 C.ar    1  UNL1       -0.0043
     46 C           1.5086   39.4540    9.3139 C.ar    1  UNL1       -0.0003
     47 C           0.7511   39.3333   10.4751 C.ar    1  UNL1       -0.0000
     48 C           0.4974   38.0694   11.0042 C.ar    1  UNL1       -0.0003
     49 C           1.0667   36.9330   10.4169 C.ar    1  UNL1       -0.0043
@<TRIPOS>BOND
     1    15    16    1
     2    16    17    1
     3    16    18    1
     4    16    11    1
     5    11    12   am
     6    11    14    1
     7    12    13    2
     8     5     6    1
     9     5    10    1
    10     5    12    1
    11     6     7    1
    12     7    19    1
    13     7     8    1
    14    19    20    1
    15    20    21   ar
    16    20    25   ar
    17    21    22   ar
    18    22    23   ar
    19    23    24   ar
    20    24    25   ar
    21     8     9    1
    22     9    10    1
    23    10     4    1
    24     4     1    1
    25     1     2    1
    26     1    26    1
    27     2     3    1
    28    26    27    1
    29    27    43    1
    30    27    28    1
    31    43    44    1
    32    44    45   ar
    33    44    49   ar
    34    45    46   ar
    35    46    47   ar
    36    47    48   ar
    37    48    49   ar
    38    28    29    2
    39    28    30   am
    40    30    32    1
    41    30    31    1
    42    32    33    1
    43    32    40    1
    44    33    34   ar
    45    33    38   ar
    46    34    35   ar
    47    35    36   ar
    48    36    37   ar
    49    37    38   ar
    50    38    39    1
    51    39    40    1
    52    40    41    1
    53    41    42    1
#	Name:			CHEMBL1162
#	Creating user name:	trannguyen
#	Creation time:		Tue Feb  8 18:26:14 2022


#	Modifying user name:	trannguyen
#	Modification time:	Tue Feb  8 18:26:14 2022

@<TRIPOS>MOLECULE
CHEMBL1162
 23 26 0 0 0
SMALL
GASTEIGER

@<TRIPOS>ATOM
      1 C           6.8968   34.2424    9.8506 C.3     1  UNL1        0.1420
      2 O           7.9153   34.7244   10.7319 O.3     1  UNL1       -0.3753
      3 C           7.1742   33.0483   10.8535 C.3     1  UNL1        0.0395
      4 C           7.0009   31.8737   10.0260 C.3     1  UNL1        0.0035
      5 C           5.5188   32.0011    9.8261 C.3     1  UNL1        0.0032
      6 C           5.1823   30.8632    8.8471 C.3     1  UNL1        0.0007
      7 C           5.6475   29.5206    9.4791 C.3     1  UNL1        0.0044
      8 C           4.8939   29.2677   10.7719 C.3     1  UNL1        0.0221
      9 C           3.5274   29.0687   10.2522 C.2     1  UNL1       -0.0417
     10 C           3.1648   27.7926   10.0245 C.2     1  UNL1        0.0290
     11 C           2.0216   27.7590   10.9614 C.2     1  UNL1        0.1725
     12 O           2.0817   27.1225   12.0058 O.2     1  UNL1       -0.2914
     13 C           0.8485   28.5938   10.5000 C.3     1  UNL1        0.0695
     14 C           1.2874   29.8094    9.5658 C.3     1  UNL1        0.0121
     15 C           2.7868   30.2993    9.7220 C.3     1  UNL1        0.0188
     16 C           3.6771   30.8760    8.4996 C.3     1  UNL1        0.0037
     17 C           3.5259   32.2744    7.8046 C.3     1  UNL1        0.0004
     18 C           4.3363   33.5875    8.2841 C.3     1  UNL1        0.0032
     19 C           5.3020   33.5401    9.5652 C.3     1  UNL1        0.0333
     20 C           4.4339   34.3094   10.5962 C.3     1  UNL1        0.0033
     21 H           8.0536   35.6333   10.9740 H       1  UNL1        0.2114
     22 C           8.5063   34.4014    7.7943 C.1     1  UNL1       -0.0119
     23 C           7.5407   34.4928    8.6059 C.1     1  UNL1       -0.0526
@<TRIPOS>BOND
     1    22    23    3
     2     1     3    1
     3     1    19    1
     4     1     2    1
     5     1    23    1
     6     2    21    1
     7     3     4    1
     8     4     5    1
     9     5     6    1
    10     5    19    1
    11     6     7    1
    12     6    16    1
    13     7     8    1
    14     8     9    1
    15     9    10    2
    16     9    15    1
    17    10    11    1
    18    11    13    1
    19    11    12    2
    20    13    14    1
    21    14    15    1
    22    15    16    1
    23    16    17    1
    24    17    18    1
    25    18    19    1
    26    19    20    1
#	Name:			CHEMBL1163145
#	Creating user name:	trannguyen
#	Creation time:		Tue Feb  8 18:26:14 2022


#	Modifying user name:	trannguyen
#	Modification time:	Tue Feb  8 18:26:14 2022

@<TRIPOS>MOLECULE
CHEMBL1163145
 66 68 0 0 0
SMALL
GASTEIGER

@<TRIPOS>ATOM
      1 CA          7.1991   32.8851    4.7524 C.3     3  TYR3        0.1530
      2 N           7.3920   33.2056    3.3325 N.am    3  TYR3       -0.2967
      3 C           7.0805   32.3241    2.3233 C.2     2  PHE2        0.2410
      4 O           6.6792   31.1961    2.5943 O.2     2  PHE2       -0.2733
      5 H           7.6997   34.1475    3.0816 H       3  TYR3        0.1499
      6 CA          7.2444   32.8827    0.8755 C.3     2  PHE2        0.1530
      7 N           8.0027   34.1529    0.9355 N.am    2  PHE2       -0.2970
      8 C           7.5857   35.3230    0.3434 C.2     1  PHE1        0.2371
      9 O           6.5318   35.3956   -0.2864 O.2     1  PHE1       -0.2737
     10 H           8.9679   34.1177    1.2427 H       2  PHE2        0.1499
     11 CA          8.5546   36.5182    0.5302 C.3     1  PHE1        0.1327
     12 N           9.1817   36.3814    1.8626 N.3     1  PHE1       -0.3148
     13 H1          9.7419   35.5253    1.8574 H       1  PHE1        0.1192
     14 H2          9.8596   37.1380    1.9797 H       1  PHE1        0.1192
     15 CB          9.5695   36.5401   -0.6325 C.3     1  PHE1        0.0512
     16 CG          9.1420   37.3785   -1.8174 C.ar    1  PHE1       -0.0203
     17 CD1         8.4091   36.8000   -2.8645 C.ar    1  PHE1       -0.0042
     18 CE1         8.0301   37.5598   -3.9719 C.ar    1  PHE1       -0.0003
     19 CZ          8.3690   38.9089   -4.0398 C.ar    1  PHE1       -0.0000
     20 CE2         9.0864   39.4986   -3.0004 C.ar    1  PHE1       -0.0003
     21 CD2         9.4743   38.7377   -1.8947 C.ar    1  PHE1       -0.0042
     22 CB          7.9720   31.9104   -0.0806 C.3     2  PHE2        0.0553
     23 CG          8.4486   32.4709   -1.4018 C.ar    2  PHE2       -0.0200
     24 CD1         9.8144   32.7111   -1.6191 C.ar    2  PHE2       -0.0042
     25 CE1        10.2777   33.1864   -2.8455 C.ar    2  PHE2       -0.0003
     26 CZ          9.3729   33.4784   -3.8597 C.ar    2  PHE2       -0.0000
     27 CE2         8.0082   33.2898   -3.6451 C.ar    2  PHE2       -0.0003
     28 CD2         7.5471   32.7785   -2.4274 C.ar    2  PHE2       -0.0042
     29 N           5.0019   32.4588    5.7554 N.am    4  VAL4       -0.2970
     30 C           5.7896   33.3787    5.0885 C.2     3  TYR3        0.2410
     31 O           5.3500   34.4587    4.6962 O.2     3  TYR3       -0.2733
     32 H           5.3094   31.4910    5.7978 H       4  VAL4        0.1499
     33 CA          3.6015   32.7579    6.0051 C.3     4  VAL4        0.1485
     34 C           3.3877   33.0370    7.5229 C.2     4  VAL4        0.2406
     35 O           4.0500   33.8346    8.1796 O.2     4  VAL4       -0.2733
     36 N           2.3180   32.3311    8.0641 N.am    5  ALA5       -0.2970
     37 H           1.6783   31.9090    7.3983 H       5  ALA5        0.1499
     38 CA          1.8502   32.4167    9.4596 C.3     5  ALA5        0.1486
     39 CB          0.4072   32.9401    9.5286 C.3     5  ALA5        0.0312
     40 C           1.9243   31.0472   10.1863 C.2     5  ALA5        0.2407
     41 O           1.8959   30.9117   11.4064 O.2     5  ALA5       -0.2733
     42 N           2.1387   29.9720    9.3575 N.am    6  GLU6       -0.2954
     43 H           2.1137   30.1404    8.3455 H       6  GLU6        0.1499
     44 CA          2.1700   28.5909    9.8265 C.3     6  GLU6        0.1718
     45 C           1.0237   28.3764   10.8270 C.2     6  GLU6        0.3318
     46 O           1.1594   27.8748   11.9362 O.2     6  GLU6       -0.2485
     47 OXT        -0.1953   28.6914   10.3266 O.3     6  GLU6       -0.4791
     48 HXT        -0.1234   28.9550    9.3863 H       6  GLU6        0.2951
     49 CB          3.5009   28.2191   10.4868 C.3     6  GLU6        0.0427
     50 CG          4.7432   28.7510    9.7742 C.3     6  GLU6        0.1116
     51 CD          5.3550   29.9924   10.3980 C.2     6  GLU6        0.3139
     52 OE1         5.0769   31.1475   10.0117 O.2     6  GLU6       -0.2503
     53 OE2         6.2606   29.8062   11.3635 O.3     6  GLU6       -0.4802
     54 HE2         6.5025   28.8805   11.5811 H       6  GLU6        0.2951
     55 CG1         3.3631   31.0649    4.1615 C.3     4  VAL4        0.0022
     56 CB          2.6496   31.7651    5.2952 C.3     4  VAL4        0.0269
     57 CG2         1.3010   32.2763    4.7876 C.3     4  VAL4        0.0022
     58 CB          8.2764   33.5641    5.6106 C.3     3  TYR3        0.0553
     59 CG          8.1890   33.2357    7.0867 C.ar    3  TYR3       -0.0198
     60 CD1         8.4637   31.9452    7.5612 C.ar    3  TYR3       -0.0011
     61 CE1         8.3514   31.6504    8.9251 C.ar    3  TYR3        0.0363
     62 CZ          7.9505   32.6436    9.8131 C.ar    3  TYR3        0.1337
     63 OH          7.8064   32.3969   11.1461 O.3     3  TYR3       -0.5055
     64 CE2         7.6816   33.9283    9.3636 C.ar    3  TYR3        0.0363
     65 CD2         7.8119   34.2261    8.0071 C.ar    3  TYR3       -0.0011
     66 HH          8.0785   31.4824   11.3255 H       3  TYR3        0.2922
@<TRIPOS>BOND
     1    55    56    1
     2    56    57    1
     3    33    29    1
     4    33    34    1
     5    33    56    1
     6    29    30   am
     7    29    32    1
     8    30    31    2
     9     1    58    1
    10     1     2    1
    11     1    30    1
    12    58    59    1
    13    59    60   ar
    14    59    65   ar
    15    60    61   ar
    16    61    62   ar
    17    62    63    1
    18    62    64   ar
    19    63    66    1
    20    64    65   ar
    21     2     3   am
    22     2     5    1
    23     3     4    2
    24     6    22    1
    25     6     7    1
    26     6     3    1
    27    22    23    1
    28    23    24   ar
    29    23    28   ar
    30    24    25   ar
    31    25    26   ar
    32    26    27   ar
    33    27    28   ar
    34     7     8   am
    35     7    10    1
    36     8     9    2
    37     8    11    1
    38    11    12    1
    39    11    15    1
    40    12    13    1
    41    12    14    1
    42    15    16    1
    43    16    17   ar
    44    16    21   ar
    45    17    18   ar
    46    18    19   ar
    47    19    20   ar
    48    20    21   ar
    49    34    35    2
    50    34    36   am
    51    36    38    1
    52    36    37    1
    53    38    39    1
    54    38    40    1
    55    40    41    2
    56    40    42   am
    57    42    44    1
    58    42    43    1
    59    44    49    1
    60    44    45    1
    61    49    50    1
    62    50    51    1
    63    51    52    2
    64    51    53    1
    65    53    54    1
    66    45    46    2
    67    45    47    1
    68    47    48    1
#	Name:			CHEMBL1163146
#	Creating user name:	trannguyen
#	Creation time:		Tue Feb  8 18:26:14 2022


#	Modifying user name:	trannguyen
#	Modification time:	Tue Feb  8 18:26:14 2022

@<TRIPOS>MOLECULE
CHEMBL1163146
 58 59 0 0 0
SMALL
GASTEIGER

@<TRIPOS>ATOM
      1 N           7.3223   33.1814    6.5450 N.am    4  VAL4       -0.2970
      2 C           7.8455   32.9455    5.2951 C.2     3  UNK3        0.2410
      3 O           8.9795   32.4985    5.1207 O.2     3  UNK3       -0.2733
      4 H           6.3754   33.5561    6.5838 H       4  VAL4        0.1499
      5 C           6.8849   33.2745    4.1286 C.3     3  UNK3        0.1530
      6 N           7.6887   33.5434    2.9214 N.am    3  UNK3       -0.2967
      7 C           8.1411   34.8096    2.6065 C.2     2  GLY2        0.2428
      8 O           7.8488   35.7957    3.2796 O.2     2  GLY2       -0.2732
      9 H           8.1099   32.7470    2.4574 H       3  UNK3        0.1499
     10 CA          9.0200   34.8666    1.3469 C.3     2  GLY2        0.1757
     11 N           8.4044   34.1876    0.2235 N.am    2  GLY2       -0.2956
     12 C           9.1560   33.3645   -0.5904 C.2     1  PHE1        0.2372
     13 O          10.3539   33.1688   -0.3999 O.2     1  PHE1       -0.2737
     14 H           7.5369   34.5590   -0.1438 H       2  GLY2        0.1499
     15 CA          8.3821   32.8063   -1.8072 C.3     1  PHE1        0.1327
     16 N           7.5416   31.6774   -1.3352 N.3     1  PHE1       -0.3148
     17 H1          6.8591   32.0458   -0.6673 H       1  PHE1        0.1192
     18 H2          8.1143   31.0321   -0.7882 H       1  PHE1        0.1192
     19 CB          7.5055   33.8929   -2.4582 C.3     1  PHE1        0.0512
     20 CG          7.8702   34.1928   -3.8984 C.ar    1  PHE1       -0.0203
     21 CD1         7.9273   33.1727   -4.8561 C.ar    1  PHE1       -0.0042
     22 CE1         8.2564   33.4659   -6.1830 C.ar    1  PHE1       -0.0003
     23 CZ          8.5414   34.7765   -6.5639 C.ar    1  PHE1       -0.0000
     24 CE2         8.4967   35.7971   -5.6191 C.ar    1  PHE1       -0.0003
     25 CD2         8.1586   35.5072   -4.2970 C.ar    1  PHE1       -0.0042
     26 C           5.9097   32.1053    3.8744 C.3     3  UNK3        0.0553
     27 C           4.4292   32.3934    4.0480 C.ar    3  UNK3       -0.0199
     28 C           3.5115   31.3271    3.9940 C.ar    3  UNK3       -0.0019
     29 C           2.1466   31.5472    4.1964 C.ar    3  UNK3        0.0293
     30 C           1.6927   32.8331    4.4535 C.ar    3  UNK3        0.1401
     31 F           0.3887   33.0431    4.6771 F       3  UNK3       -0.2042
     32 C           2.5733   33.9054    4.4789 C.ar    3  UNK3        0.0293
     33 C           3.9350   33.6904    4.2536 C.ar    3  UNK3       -0.0019
     34 CA          8.0647   33.0188    7.8091 C.3     4  VAL4        0.1485
     35 C           7.7310   31.5867    8.3739 C.2     4  VAL4        0.2406
     36 O           8.5455   30.6679    8.4305 O.2     4  VAL4       -0.2733
     37 N           6.4538   31.4899    8.9150 N.am    5  ALA5       -0.2970
     38 H           5.9766   32.3635    9.1001 H       5  ALA5        0.1499
     39 CA          5.9629   30.3475    9.6882 C.3     5  ALA5        0.1486
     40 CB          6.6482   30.2349   11.0559 C.3     5  ALA5        0.0312
     41 C           4.4416   30.5181    9.8840 C.2     5  ALA5        0.2407
     42 O           3.8620   31.5930    9.8207 O.2     5  ALA5       -0.2733
     43 N           3.7716   29.3844   10.3150 N.am    6  GLU6       -0.2954
     44 H           4.2950   28.5129   10.3075 H       6  GLU6        0.1499
     45 CA          2.3004   29.3656   10.4946 C.3     6  GLU6        0.1718
     46 C           1.8125   28.0785   11.1978 C.2     6  GLU6        0.3318
     47 O           1.0811   28.0770   12.1806 O.2     6  GLU6       -0.2485
     48 OXT         2.1808   26.9159   10.6124 O.3     6  GLU6       -0.4791
     49 HXT         2.8565   27.0816    9.9392 H       6  GLU6        0.2951
     50 CB          1.5737   29.4043    9.1342 C.3     6  GLU6        0.0427
     51 CG          0.3723   30.3384    9.0641 C.3     6  GLU6        0.1116
     52 CD          0.6892   31.8276    8.9593 C.2     6  GLU6        0.3139
     53 OE1         0.3320   32.6317    9.7716 O.2     6  GLU6       -0.2503
     54 OE2         1.5058   32.1588    7.9135 O.3     6  GLU6       -0.4802
     55 HE2         1.8233   31.4588    7.3414 H       6  GLU6        0.2951
     56 CG1         8.2437   35.5384    8.2276 C.3     4  VAL4        0.0022
     57 CB          7.6691   34.2012    8.7469 C.3     4  VAL4        0.0269
     58 CG2         8.0998   34.0564   10.2084 C.3     4  VAL4        0.0022
@<TRIPOS>BOND
     1    56    57    1
     2    57    58    1
     3    34     1    1
     4    34    35    1
     5    34    57    1
     6     1     2   am
     7     1     4    1
     8     2     3    2
     9     5    26    1
    10     5     6    1
    11     5     2    1
    12    26    27    1
    13    27    28   ar
    14    27    33   ar
    15    28    29   ar
    16    29    30   ar
    17    30    31    1
    18    30    32   ar
    19    32    33   ar
    20     6     7   am
    21     6     9    1
    22     7     8    2
    23     7    10    1
    24    10    11    1
    25    11    12   am
    26    11    14    1
    27    12    13    2
    28    12    15    1
    29    15    16    1
    30    15    19    1
    31    16    17    1
    32    16    18    1
    33    19    20    1
    34    20    21   ar
    35    20    25   ar
    36    21    22   ar
    37    22    23   ar
    38    23    24   ar
    39    24    25   ar
    40    35    36    2
    41    35    37   am
    42    37    39    1
    43    37    38    1
    44    39    40    1
    45    39    41    1
    46    41    42    2
    47    41    43   am
    48    43    45    1
    49    43    44    1
    50    45    50    1
    51    45    46    1
    52    50    51    1
    53    51    52    1
    54    52    53    2
    55    52    54    1
    56    54    55    1
    57    46    47    2
    58    46    48    1
    59    48    49    1
#	Name:			CHEMBL1163153
#	Creating user name:	trannguyen
#	Creation time:		Tue Feb  8 18:26:14 2022


#	Modifying user name:	trannguyen
#	Modification time:	Tue Feb  8 18:26:14 2022

@<TRIPOS>MOLECULE
CHEMBL1163153
 63 64 0 0 0
SMALL
GASTEIGER

@<TRIPOS>ATOM
      1 CA          3.9969   32.9598    8.2941 C.3     4  TYR4        0.1530
      2 N           6.0844   33.8293    9.3128 N.am    5  VAL5       -0.2970
      3 C           4.6905   33.8927    9.3300 C.2     4  TYR4        0.2410
      4 O           4.0405   34.6607   10.0212 O.2     4  TYR4       -0.2733
      5 H           6.3931   32.8878    9.1093 H       5  VAL5        0.1499
      6 CA          6.9611   34.5184   10.2895 C.3     5  VAL5        0.1485
      7 C           7.6271   35.8872    9.7798 C.2     5  VAL5        0.2406
      8 O           8.0289   36.6973   10.6224 O.2     5  VAL5       -0.2733
      9 N           7.7448   36.2382    8.4497 N.am    6  ALA6       -0.2970
     10 H           7.6647   35.5241    7.7425 H       6  ALA6        0.1499
     11 CA          8.4113   37.5311    8.0703 C.3     6  ALA6        0.1486
     12 CB          9.1386   37.4681    6.7128 C.3     6  ALA6        0.0312
     13 C           7.4361   38.7457    8.0731 C.2     6  ALA6        0.2407
     14 O           7.4328   39.6231    8.9374 O.2     6  ALA6       -0.2733
     15 N           6.5901   38.8176    6.9922 N.am    7  GLY7       -0.2937
     16 H           6.4947   38.0112    6.3952 H       7  GLY7        0.1500
     17 CA          5.6736   39.9208    6.7846 C.3     7  GLY7        0.2004
     18 C           4.7009   39.6310    5.6490 C.2     7  GLY7        0.3341
     19 O           4.6431   40.2927    4.6183 O.2     7  GLY7       -0.2484
     20 OXT         3.8434   38.6154    5.9043 O.3     7  GLY7       -0.4790
     21 HXT         3.9116   38.2700    6.8208 H       7  GLY7        0.2951
     22 CG1         9.2410   33.3648   10.5727 C.3     5  VAL5        0.0022
     23 CB          7.7652   33.4347   11.0898 C.3     5  VAL5        0.0269
     24 CG2         7.1733   32.0448   10.9106 C.3     5  VAL5        0.0022
     25 N           4.1752   33.4430    6.9046 N.am    4  TYR4       -0.2967
     26 C           3.2313   33.2107    5.9225 C.2     3  GLY3        0.2428
     27 O           2.2361   32.5208    6.1406 O.2     3  GLY3       -0.2732
     28 H           4.9634   34.0457    6.6965 H       4  TYR4        0.1499
     29 CA          3.6163   33.6628    4.4941 C.3     3  GLY3        0.1757
     30 N           5.0490   33.4249    4.2719 N.am    3  GLY3       -0.2953
     31 C           5.5561   32.2382    3.7636 C.2     2  PHE2        0.2410
     32 O           4.8314   31.2726    3.5374 O.2     2  PHE2       -0.2733
     33 H           5.6773   34.1966    4.4470 H       3  GLY3        0.1499
     34 CA          7.1218   32.1917    3.6329 C.3     2  PHE2        0.1530
     35 N           7.5663   32.6110    2.2743 N.am    2  PHE2       -0.2970
     36 C           7.7303   31.7026    1.2371 C.2     1  ASP1        0.2374
     37 O           7.4518   30.5115    1.3782 O.2     1  ASP1       -0.2736
     38 H           7.6227   33.6025    2.0797 H       2  PHE2        0.1499
     39 CA          8.3084   32.2694   -0.1086 C.3     1  ASP1        0.1395
     40 N           7.5175   31.7111   -1.2158 N.3     1  ASP1       -0.3146
     41 H1          7.6314   30.6972   -1.2544 H       1  ASP1        0.1192
     42 H2          7.8444   32.0722   -2.1161 H       1  ASP1        0.1192
     43 CB          8.3525   33.8097    0.0166 C.3     1  ASP1        0.1341
     44 CG          7.5013   34.6515   -0.8878 C.2     1  ASP1        0.3157
     45 OD1         6.7509   35.5872   -0.5190 O.2     1  ASP1       -0.2502
     46 OD2         7.6318   34.3439   -2.2126 O.3     1  ASP1       -0.4801
     47 HD2         8.2753   33.6457   -2.4114 H       1  ASP1        0.2951
     48 CB          7.7949   33.0525    4.7325 C.3     2  PHE2        0.0553
     49 CG          8.4426   32.2677    5.8514 C.ar    2  PHE2       -0.0200
     50 CD1         9.8259   32.3597    6.0608 C.ar    2  PHE2       -0.0042
     51 CE1        10.4378   31.6382    7.0858 C.ar    2  PHE2       -0.0003
     52 CZ          9.6747   30.8115    7.9068 C.ar    2  PHE2       -0.0000
     53 CE2         8.3001   30.7044    7.7022 C.ar    2  PHE2       -0.0003
     54 CD2         7.6860   31.4248    6.6764 C.ar    2  PHE2       -0.0042
     55 CB          4.5048   31.5022    8.4219 C.3     4  TYR4        0.0553
     56 CG          3.5912   30.5770    9.1947 C.ar    4  TYR4       -0.0198
     57 CD1         4.1091   29.4975    9.9252 C.ar    4  TYR4       -0.0011
     58 CE1         3.2512   28.5961   10.5642 C.ar    4  TYR4        0.0363
     59 CZ          1.8750   28.7674   10.4582 C.ar    4  TYR4        0.1337
     60 OH          0.9956   27.9023   11.0375 O.3     4  TYR4       -0.5055
     61 CE2         1.3462   29.8395    9.7535 C.ar    4  TYR4        0.0363
     62 CD2         2.2000   30.7551    9.1403 C.ar    4  TYR4       -0.0011
     63 HH          1.4939   27.2485   11.5562 H       4  TYR4        0.2922
@<TRIPOS>BOND
     1    22    23    1
     2    23    24    1
     3     6     2    1
     4     6     7    1
     5     6    23    1
     6     2     3   am
     7     2     5    1
     8     3     4    2
     9     1    55    1
    10     1    25    1
    11     1     3    1
    12    55    56    1
    13    56    57   ar
    14    56    62   ar
    15    57    58   ar
    16    58    59   ar
    17    59    60    1
    18    59    61   ar
    19    60    63    1
    20    61    62   ar
    21    25    26   am
    22    25    28    1
    23    26    27    2
    24    26    29    1
    25    29    30    1
    26    30    31   am
    27    30    33    1
    28    31    32    2
    29    34    48    1
    30    34    35    1
    31    34    31    1
    32    48    49    1
    33    49    50   ar
    34    49    54   ar
    35    50    51   ar
    36    51    52   ar
    37    52    53   ar
    38    53    54   ar
    39    35    36   am
    40    35    38    1
    41    36    37    2
    42    36    39    1
    43    39    40    1
    44    39    43    1
    45    40    41    1
    46    40    42    1
    47    43    44    1
    48    44    45    2
    49    44    46    1
    50    46    47    1
    51     7     8    2
    52     7     9   am
    53     9    11    1
    54     9    10    1
    55    11    12    1
    56    11    13    1
    57    13    14    2
    58    13    15   am
    59    15    17    1
    60    15    16    1
    61    17    18    1
    62    18    19    2
    63    18    20    1
    64    20    21    1
#	Name:			CHEMBL1163189
#	Creating user name:	trannguyen
#	Creation time:		Tue Feb  8 18:26:14 2022


#	Modifying user name:	trannguyen
#	Modification time:	Tue Feb  8 18:26:14 2022

@<TRIPOS>MOLECULE
CHEMBL1163189
 19 19 0 0 0
SMALL
GASTEIGER

@<TRIPOS>ATOM
      1 C           3.3839   31.9548    6.6468 C.ar    1  UNL1        0.0147
      2 C           4.3457   32.0707    7.6607 C.ar    1  UNL1        0.0388
      3 C           4.1162   31.5965    8.9599 C.ar    1  UNL1        0.1723
      4 C           2.9031   30.9472    9.2444 C.ar    1  UNL1        0.1760
      5 C           1.9457   30.8051    8.2275 C.ar    1  UNL1        0.0763
      6 C           2.1749   31.3324    6.9551 C.ar    1  UNL1        0.1329
      7 O           1.2071   31.2542    5.9948 O.3     1  UNL1       -0.5057
      8 H           0.4165   30.8367    6.3740 H       1  UNL1        0.2922
      9 O           5.0513   31.7104    9.9511 O.3     1  UNL1       -0.4684
     10 C           6.0990   30.7500    9.9922 C.3     1  UNL1        0.2526
     11 C           3.7035   32.5218    5.2827 C.3     1  UNL1        0.0295
     12 C           5.5853   31.4480    3.9257 C.3     1  UNL1        0.0004
     13 C           4.0924   31.4883    4.2225 C.3     1  UNL1        0.0048
     14 O           2.5256   30.3686   10.4331 O.3     1  UNL1       -0.4606
     15 C           1.6103   29.2810   10.3723 C.3     1  UNL1        0.3142
     16 C           2.1675   28.0865   11.1308 C.2     1  UNL1        0.3621
     17 O           2.0772   27.9124   12.3338 O.2     1  UNL1       -0.2459
     18 O           2.7788   27.2286   10.2560 O.3     1  UNL1       -0.4418
     19 C           4.1470   27.5424   10.0062 C.3     1  UNL1        0.2557
@<TRIPOS>BOND
     1    12    13    1
     2    13    11    1
     3    11     1    1
     4     1     2   ar
     5     1     6   ar
     6     2     3   ar
     7     3     9    1
     8     3     4   ar
     9     9    10    1
    10     4    14    1
    11     4     5   ar
    12    14    15    1
    13    15    16    1
    14    16    17    2
    15    16    18    1
    16    18    19    1
    17     5     6   ar
    18     6     7    1
    19     7     8    1
#	Name:			CHEMBL1163198
#	Creating user name:	trannguyen
#	Creation time:		Tue Feb  8 18:26:14 2022


#	Modifying user name:	trannguyen
#	Modification time:	Tue Feb  8 18:26:14 2022

@<TRIPOS>MOLECULE
CHEMBL1163198
 61 61 0 0 0
SMALL
GASTEIGER

@<TRIPOS>ATOM
      1 C           8.2889   33.5133    4.8450 C.2     4  PRO4        0.2409
      2 O           7.6571   34.5691    4.7388 O.2     4  PRO4       -0.2733
      3 N           7.9333   32.3964    4.1284 N.am    5  THR5       -0.2951
      4 H           8.1046   31.5143    4.6031 H       5  THR5        0.1499
      5 C           9.2969   34.1089    7.9442 C.2     3  VAL3        0.2438
      6 O           8.4706   34.9435    7.5543 O.2     3  VAL3       -0.2731
      7 N           9.7934   33.2008    7.0218 N.am    4  PRO4       -0.2717
      8 CD         10.8433   32.2240    7.2618 C.3     4  PRO4        0.0939
      9 CG         11.5459   32.0431    5.9277 C.3     4  PRO4        0.0237
     10 CB         10.4536   32.3330    4.9208 C.3     4  PRO4        0.0310
     11 CA          9.6519   33.4719    5.5737 C.3     4  PRO4        0.1518
     12 CA          9.9044   34.2197    9.4010 C.3     3  VAL3        0.1487
     13 C          12.1804   35.2603    9.5333 C.2     2  ALA2        0.2406
     14 O          12.7266   34.2249    9.1541 O.2     2  ALA2       -0.2733
     15 N          10.8004   35.3679    9.6630 N.am    3  VAL3       -0.2970
     16 H          10.4498   36.1139   10.2501 H       3  VAL3        0.1499
     17 CA         12.9945   36.5633    9.8239 C.3     2  ALA2        0.1486
     18 CB         13.3793   37.1411    8.4543 C.3     2  ALA2        0.0312
     19 C          14.9046   37.3611   11.2754 C.2     1  ILE1        0.2368
     20 O          14.4591   38.4962   11.3983 O.2     1  ILE1       -0.2737
     21 N          14.2455   36.3787   10.5720 N.am    2  ALA2       -0.2973
     22 H          14.8445   35.5946   10.3260 H       2  ALA2        0.1499
     23 CA         16.2676   36.8881   11.9196 C.3     1  ILE1        0.1282
     24 N          17.1685   38.0698   12.0296 N.3     1  ILE1       -0.3150
     25 H1         17.1376   38.5811   11.1430 H       1  ILE1        0.1192
     26 H2         18.1307   37.7327   12.0969 H       1  ILE1        0.1192
     27 CB         16.1215   36.2239   13.3244 C.3     1  ILE1        0.0231
     28 CG2        17.0808   35.0347   13.4595 C.3     1  ILE1        0.0019
     29 CD1        15.0997   37.7176   15.1952 C.3     1  ILE1        0.0001
     30 CG1        16.3649   37.2347   14.4867 C.3     1  ILE1        0.0018
     31 CB          8.8225   34.0144   10.5177 C.3     3  VAL3        0.0269
     32 CG1         9.4345   33.3603   11.7672 C.3     3  VAL3        0.0022
     33 CG2         8.0311   35.2513   10.9574 C.3     3  VAL3        0.0022
     34 CA          6.8314   32.4417    3.1341 C.3     5  THR5        0.1757
     35 CB          7.2329   31.7574    1.7984 C.3     5  THR5        0.1373
     36 CG2         8.5855   32.1984    1.2260 C.3     5  THR5        0.0340
     37 OG1         7.3242   30.3332    2.0098 O.3     5  THR5       -0.3823
     38 HG1         7.4068   29.9180    1.1334 H       5  THR5        0.2104
     39 C           5.5772   31.8323    3.7915 C.2     5  THR5        0.2432
     40 O           5.0680   30.7776    3.4239 O.2     5  THR5       -0.2732
     41 N           5.0128   32.6295    4.7689 N.am    6  GLY6       -0.2952
     42 H           5.3745   33.5779    4.8728 H       6  GLY6        0.1499
     43 CA          3.8254   32.2244    5.4929 C.3     6  GLY6        0.1757
     44 C           3.4830   33.1327    6.6892 C.2     6  GLY6        0.2428
     45 O           3.0250   34.2669    6.5372 O.2     6  GLY6       -0.2732
     46 N           3.7288   32.7024    7.9695 N.am    7  VAL7       -0.2969
     47 H           3.3558   33.3619    8.6490 H       7  VAL7        0.1499
     48 CA          3.9907   31.3402    8.4387 C.3     7  VAL7        0.1485
     49 C           2.9433   30.9527    9.5321 C.2     7  VAL7        0.2407
     50 O           2.5543   31.7152   10.3925 O.2     7  VAL7       -0.2733
     51 N           2.6425   29.5900    9.5309 N.am    8  ALA8       -0.2954
     52 H           2.6711   29.1194    8.6332 H       8  ALA8        0.1499
     53 CA          1.7947   28.9753   10.5632 C.3     8  ALA8        0.1713
     54 CB          0.3502   28.8628   10.1131 C.3     8  ALA8        0.0333
     55 C           2.3432   27.5892   10.9218 C.2     8  ALA8        0.3318
     56 O           1.9536   26.9004   11.8205 O.2     8  ALA8       -0.2485
     57 OXT         3.4252   27.2067   10.1810 O.3     8  ALA8       -0.4791
     58 HXT         3.6933   27.9513    9.6553 H       8  ALA8        0.2951
     59 CB          5.4258   31.1880    9.0250 C.3     7  VAL7        0.0269
     60 CG1         5.9131   32.4477    9.7438 C.3     7  VAL7        0.0022
     61 CG2         5.5332   30.0398   10.0260 C.3     7  VAL7        0.0022
@<TRIPOS>BOND
     1    29    30    1
     2    27    28    1
     3    27    30    1
     4    23    24    1
     5    23    19    1
     6    23    27    1
     7    24    25    1
     8    24    26    1
     9    19    20    2
    10    19    21   am
    11    21    17    1
    12    21    22    1
    13    17    18    1
    14    17    13    1
    15    13    14    2
    16    13    15   am
    17    15    16    1
    18    12     5    1
    19    12    31    1
    20    12    15    1
    21     5     6    2
    22     5     7   am
    23     7     8    1
    24     7    11    1
    25     8     9    1
    26     9    10    1
    27    10    11    1
    28    11     1    1
    29     1     2    2
    30     1     3   am
    31     3     4    1
    32    34    39    1
    33    34    35    1
    34    34     3    1
    35    39    40    2
    36    39    41   am
    37    41    43    1
    38    41    42    1
    39    43    44    1
    40    44    45    2
    41    44    46   am
    42    46    47    1
    43    48    49    1
    44    48    59    1
    45    48    46    1
    46    49    50    2
    47    49    51   am
    48    51    53    1
    49    51    52    1
    50    53    54    1
    51    53    55    1
    52    55    56    2
    53    55    57    1
    54    57    58    1
    55    59    60    1
    56    59    61    1
    57    35    36    1
    58    35    37    1
    59    37    38    1
    60    31    32    1
    61    31    33    1
#	Name:			CHEMBL1163691
#	Creating user name:	trannguyen
#	Creation time:		Tue Feb  8 18:26:14 2022


#	Modifying user name:	trannguyen
#	Modification time:	Tue Feb  8 18:26:14 2022

@<TRIPOS>MOLECULE
CHEMBL1163691
 15 15 0 0 0
SMALL
GASTEIGER

@<TRIPOS>ATOM
      1 C           2.5232   31.5969    7.8605 C.ar    1  UNL1        0.0147
      2 C           3.5969   30.9222    8.4579 C.ar    1  UNL1        0.0388
      3 C           3.4566   30.2301    9.6719 C.ar    1  UNL1        0.1723
      4 C           2.2006   30.1901   10.3025 C.ar    1  UNL1        0.1754
      5 C           1.1391   30.9109    9.7407 C.ar    1  UNL1        0.0763
      6 C           1.3001   31.6006    8.5372 C.ar    1  UNL1        0.1329
      7 O           0.2477   32.2830    7.9924 O.3     1  UNL1       -0.5057
      8 H          -0.5169   32.2085    8.5880 H       1  UNL1        0.2922
      9 O           4.5991   29.5771   10.0580 O.3     1  UNL1       -0.4684
     10 C           5.8076   30.3270   10.0519 C.3     1  UNL1        0.2526
     11 O           2.0598   29.4606   11.4536 O.3     1  UNL1       -0.4683
     12 C           1.5454   28.1391   11.3022 C.3     1  UNL1        0.2526
     13 C           2.7026   32.2761    6.5220 C.3     1  UNL1        0.0295
     14 C           3.4019   31.3025    4.2934 C.3     1  UNL1        0.0004
     15 C           2.2989   31.3912    5.3410 C.3     1  UNL1        0.0048
@<TRIPOS>BOND
     1    14    15    1
     2    15    13    1
     3    13     1    1
     4     1     2   ar
     5     1     6   ar
     6     2     3   ar
     7     3     9    1
     8     3     4   ar
     9     9    10    1
    10     4    11    1
    11     4     5   ar
    12    11    12    1
    13     5     6   ar
    14     6     7    1
    15     7     8    1
#	Name:			CHEMBL1164157
#	Creating user name:	trannguyen
#	Creation time:		Tue Feb  8 18:26:14 2022


#	Modifying user name:	trannguyen
#	Modification time:	Tue Feb  8 18:26:14 2022

@<TRIPOS>MOLECULE
CHEMBL1164157
 48 49 0 0 0
SMALL
GASTEIGER

@<TRIPOS>ATOM
      1 C           2.5912   32.4809    9.8371 C.2     2  UNK2        0.2442
      2 O           1.6306   32.7174   10.5771 O.2     2  UNK2       -0.2731
      3 N           3.7214   33.2726    9.9231 N.am    3  PRO3       -0.2717
      4 CD          4.9462   33.2212    9.1514 C.3     3  PRO3        0.0939
      5 CG          5.9382   33.9649   10.0330 C.3     3  PRO3        0.0237
      6 CB          5.0989   34.9981   10.7958 C.3     3  PRO3        0.0310
      7 CA          3.6481   34.5173   10.6839 C.3     3  PRO3        0.1518
      8 C           2.7711   35.5357    9.8984 C.2     3  PRO3        0.2409
      9 O           3.0171   35.8740    8.7411 O.2     3  PRO3       -0.2733
     10 N           1.7096   36.0714   10.5962 N.am    4  ASP4       -0.2966
     11 H           1.6441   35.9071   11.5961 H       4  ASP4        0.1499
     12 CA          0.7216   36.9698    9.9679 C.3     4  ASP4        0.1598
     13 C           0.8914   38.3514   10.6318 C.2     4  ASP4        0.2413
     14 O           1.5932   38.5064   11.6279 O.2     4  ASP4       -0.2733
     15 N           0.2607   39.3939    9.9925 N.am    5  GLY5       -0.2953
     16 H          -0.2708   39.2107    9.1481 H       5  GLY5        0.1499
     17 CA          0.3503   40.7616   10.4862 C.3     5  GLY5        0.1757
     18 C           1.4898   41.5494    9.8288 C.2     5  GLY5        0.2429
     19 O           2.1933   41.1044    8.9307 O.2     5  GLY5       -0.2732
     20 N           1.7699   42.7646   10.4149 N.am    6  GLY6       -0.2936
     21 H           1.1348   43.1458   11.1060 H       6  GLY6        0.1500
     22 CA          2.8030   43.6701    9.9050 C.3     6  GLY6        0.2004
     23 C           2.2527   45.0081    9.4091 C.2     6  GLY6        0.3341
     24 O           2.8055   46.0784    9.6011 O.2     6  GLY6       -0.2484
     25 OXT         1.0491   44.9142    8.7942 O.3     6  GLY6       -0.4790
     26 HXT         0.6686   44.0233    8.9148 H       6  GLY6        0.2951
     27 CB         -0.7124   36.4893   10.1551 C.3     4  ASP4        0.1382
     28 CG         -0.7525   35.0512   10.6610 C.2     4  ASP4        0.3160
     29 OD1        -1.1412   34.7326   11.7643 O.2     4  ASP4       -0.2502
     30 OD2        -0.2571   34.1546    9.7747 O.3     4  ASP4       -0.4801
     31 HD2         0.0711   34.5087    8.9296 H       4  ASP4        0.2951
     32 C           2.5865   31.2848    8.8509 C.3     2  UNK2        0.1532
     33 C           2.5980   29.3414   10.4427 C.2     1  GLY1        0.2387
     34 O           3.7474   29.5240   10.8323 O.2     1  GLY1       -0.2736
     35 N           1.9640   30.1282    9.5051 N.am    2  UNK2       -0.2969
     36 H           0.9672   29.9653    9.3930 H       2  UNK2        0.1499
     37 N           2.3697   26.9103   10.8861 N.3     1  GLY1       -0.3135
     38 CA          1.7285   28.2300   11.0398 C.3     1  GLY1        0.1515
     39 H1          1.8159   26.2345   11.4158 H       1  GLY1        0.1193
     40 H2          3.2692   26.9519   11.3698 H       1  GLY1        0.1193
     41 C           1.9488   31.7201    7.5016 C.3     2  UNK2        0.0553
     42 C           2.8885   31.7376    6.3067 C.ar    2  UNK2       -0.0199
     43 C           2.5568   31.0777    5.1132 C.ar    2  UNK2       -0.0019
     44 C           3.4365   31.0563    4.0306 C.ar    2  UNK2        0.0293
     45 C           4.6515   31.7157    4.1275 C.ar    2  UNK2        0.1401
     46 F           5.5069   31.6764    3.0975 F       2  UNK2       -0.2042
     47 C           4.9857   32.4224    5.2753 C.ar    2  UNK2        0.0293
     48 C           4.0985   32.4497    6.3567 C.ar    2  UNK2       -0.0019
@<TRIPOS>BOND
     1    37    38    1
     2    37    39    1
     3    37    40    1
     4    38    33    1
     5    33    34    2
     6    33    35   am
     7    35    32    1
     8    35    36    1
     9    32    41    1
    10    32     1    1
    11    41    42    1
    12    42    43   ar
    13    42    48   ar
    14    43    44   ar
    15    44    45   ar
    16    45    46    1
    17    45    47   ar
    18    47    48   ar
    19     1     2    2
    20     1     3   am
    21     3     4    1
    22     3     7    1
    23     4     5    1
    24     5     6    1
    25     6     7    1
    26     7     8    1
    27     8     9    2
    28     8    10   am
    29    10    12    1
    30    10    11    1
    31    12    27    1
    32    12    13    1
    33    27    28    1
    34    28    29    2
    35    28    30    1
    36    30    31    1
    37    13    14    2
    38    13    15   am
    39    15    17    1
    40    15    16    1
    41    17    18    1
    42    18    19    2
    43    18    20   am
    44    20    22    1
    45    20    21    1
    46    22    23    1
    47    23    24    2
    48    23    25    1
    49    25    26    1
#	Name:			CHEMBL1164546
#	Creating user name:	trannguyen
#	Creation time:		Tue Feb  8 18:26:14 2022


#	Modifying user name:	trannguyen
#	Modification time:	Tue Feb  8 18:26:14 2022

@<TRIPOS>MOLECULE
CHEMBL1164546
 47 48 0 0 0
SMALL
GASTEIGER

@<TRIPOS>ATOM
      1 CA          6.9664   32.3071    7.6259 C.3     3  PRO3        0.1518
      2 CB          6.8944   30.8098    7.9541 C.3     3  PRO3        0.0310
      3 CG          6.7545   30.7930    9.4743 C.3     3  PRO3        0.0237
      4 CD          7.6319   31.9465    9.9269 C.3     3  PRO3        0.0939
      5 N           7.7620   32.8179    8.7719 N.am    3  PRO3       -0.2717
      6 C           8.7242   33.8081    8.6146 C.2     2  UNK2        0.2442
      7 O           8.7413   34.5259    7.6102 O.2     2  UNK2       -0.2731
      8 N           4.7241   32.5094    6.4670 N.am    4  THR4       -0.2951
      9 C           5.5357   32.9352    7.5184 C.2     3  PRO3        0.2409
     10 O           5.1029   33.7181    8.3655 O.2     3  PRO3       -0.2733
     11 H           5.0242   31.7566    5.8583 H       4  THR4        0.1499
     12 CA          3.3121   32.9959    6.3377 C.3     4  THR4        0.1757
     13 CG2         3.3535   32.0871    3.8956 C.3     4  THR4        0.0340
     14 CB          2.8260   33.1624    4.8608 C.3     4  THR4        0.1373
     15 OG1         1.3912   33.1001    4.8174 O.3     4  THR4       -0.3823
     16 HG1         1.1220   32.9545    3.8924 H       4  THR4        0.2104
     17 C           2.3184   32.0823    7.1015 C.2     4  THR4        0.2432
     18 O           1.7920   31.0869    6.6081 O.2     4  THR4       -0.2732
     19 N           2.0590   32.4198    8.4035 N.am    5  GLY5       -0.2952
     20 H           2.1848   33.3913    8.6590 H       5  GLY5        0.1499
     21 CA          1.1262   31.6293    9.1775 C.3     5  GLY5        0.1757
     22 C           1.9004   30.7583   10.1545 C.2     5  GLY5        0.2429
     23 O           1.9842   31.0154   11.3513 O.2     5  GLY5       -0.2732
     24 N           2.5009   29.6582    9.5935 N.am    6  GLY6       -0.2936
     25 H           2.4256   29.4455    8.6021 H       6  GLY6        0.1500
     26 CA          3.2198   28.7271   10.4402 C.3     6  GLY6        0.2004
     27 C           2.3244   27.6651   11.0676 C.2     6  GLY6        0.3341
     28 O           1.7405   27.7616   12.1102 O.2     6  GLY6       -0.2484
     29 OXT         2.2075   26.5461   10.3165 O.3     6  GLY6       -0.4790
     30 HXT         1.5948   25.9890   10.8412 H       6  GLY6        0.2951
     31 C           9.8444   33.9231    9.7166 C.3     2  UNK2        0.1532
     32 N          10.6518   32.7019    9.7476 N.am    2  UNK2       -0.2969
     33 C          11.5882   32.4518    8.7607 C.2     1  GLY1        0.2387
     34 O          11.7393   33.1777    7.7804 O.2     1  GLY1       -0.2736
     35 H          10.5404   32.0469   10.5057 H       2  UNK2        0.1499
     36 CA         12.4203   31.1900    9.0024 C.3     1  GLY1        0.1515
     37 N          11.5745   29.9924    8.9542 N.3     1  GLY1       -0.3135
     38 H1         10.9340   29.9824    9.7436 H       1  GLY1        0.1193
     39 H2         12.1653   29.1671    9.0369 H       1  GLY1        0.1193
     40 C          10.7026   35.2067    9.6338 C.3     2  UNK2        0.0553
     41 C          10.1507   36.4522   10.2996 C.ar    2  UNK2       -0.0199
     42 C           9.6616   36.3733   11.6124 C.ar    2  UNK2       -0.0019
     43 C           9.0833   37.4867   12.2256 C.ar    2  UNK2        0.0293
     44 C           9.0424   38.6988   11.5513 C.ar    2  UNK2        0.1401
     45 F           8.4851   39.7659   12.1397 F       2  UNK2       -0.2042
     46 C           9.5811   38.8211   10.2768 C.ar    2  UNK2        0.0293
     47 C          10.1259   37.6975    9.6450 C.ar    2  UNK2       -0.0019
@<TRIPOS>BOND
     1    13    14    1
     2    14    15    1
     3    15    16    1
     4    12     8    1
     5    12    17    1
     6    12    14    1
     7     8     9   am
     8     8    11    1
     9     9    10    2
    10     1     2    1
    11     1     5    1
    12     1     9    1
    13     2     3    1
    14     3     4    1
    15     4     5    1
    16     5     6   am
    17     6     7    2
    18    31    40    1
    19    31    32    1
    20    31     6    1
    21    40    41    1
    22    41    42   ar
    23    41    47   ar
    24    42    43   ar
    25    43    44   ar
    26    44    45    1
    27    44    46   ar
    28    46    47   ar
    29    32    33   am
    30    32    35    1
    31    33    34    2
    32    33    36    1
    33    36    37    1
    34    37    38    1
    35    37    39    1
    36    17    18    2
    37    17    19   am
    38    19    21    1
    39    19    20    1
    40    21    22    1
    41    22    23    2
    42    22    24   am
    43    24    26    1
    44    24    25    1
    45    26    27    1
    46    27    28    2
    47    27    29    1
    48    29    30    1
#	Name:			CHEMBL1165012
#	Creating user name:	trannguyen
#	Creation time:		Tue Feb  8 18:26:14 2022


#	Modifying user name:	trannguyen
#	Modification time:	Tue Feb  8 18:26:14 2022

@<TRIPOS>MOLECULE
CHEMBL1165012
 43 44 0 0 0
SMALL
GASTEIGER

@<TRIPOS>ATOM
      1 C           1.4123   32.5538    9.3310 C.2     2  UNK2        0.2442
      2 O           0.2698   32.4885    9.7960 O.2     2  UNK2       -0.2731
      3 N           2.1685   33.7095    9.4773 N.am    3  PRO3       -0.2717
      4 CD          3.5389   33.9094    9.0481 C.3     3  PRO3        0.0939
      5 CG          4.2634   34.2023   10.3403 C.3     3  PRO3        0.0237
      6 CB          3.2519   35.0280   11.1372 C.3     3  PRO3        0.0310
      7 CA          1.8663   34.6105   10.6039 C.3     3  PRO3        0.1518
      8 C           1.0025   35.8411   10.2356 C.2     3  PRO3        0.2409
      9 O          -0.1535   35.9493   10.6437 O.2     3  PRO3       -0.2733
     10 N           1.6251   36.8708    9.5620 N.am    4  GLY4       -0.2953
     11 H           2.6230   36.8290    9.4073 H       4  GLY4        0.1499
     12 CA          0.9150   38.0970    9.2102 C.3     4  GLY4        0.1757
     13 C           1.2222   39.2916   10.1227 C.2     4  GLY4        0.2429
     14 O           1.4861   39.1431   11.3157 O.2     4  GLY4       -0.2732
     15 N           1.0996   40.5423    9.5583 N.am    5  GLY5       -0.2952
     16 H           0.6090   40.6326    8.6696 H       5  GLY5        0.1499
     17 CA          1.3329   41.7253   10.3671 C.3     5  GLY5        0.1757
     18 C           1.6550   42.9511    9.5150 C.2     5  GLY5        0.2429
     19 O           1.5370   44.1077    9.9157 O.2     5  GLY5       -0.2732
     20 N           1.9861   42.6524    8.2077 N.am    6  GLY6       -0.2936
     21 H           2.1993   41.6916    7.9576 H       6  GLY6        0.1500
     22 CA          2.2562   43.6842    7.1989 C.3     6  GLY6        0.2004
     23 C           1.0096   44.4765    6.8266 C.2     6  GLY6        0.3341
     24 O           0.8936   45.6680    6.9509 O.2     6  GLY6       -0.2484
     25 OXT         0.0331   43.6864    6.3005 O.3     6  GLY6       -0.4790
     26 HXT         0.2652   42.7549    6.3704 H       6  GLY6        0.2951
     27 C           2.0289   31.3537    8.5656 C.3     2  UNK2        0.1532
     28 C           2.3582   29.5594   10.2576 C.2     1  GLY1        0.2387
     29 O           3.4064   30.0475   10.6779 O.2     1  GLY1       -0.2736
     30 N           1.6212   30.1191    9.2385 N.am    2  UNK2       -0.2969
     31 H           0.6585   29.8251    9.1154 H       2  UNK2        0.1499
     32 N           0.3133   28.3181   10.8325 N.3     1  GLY1       -0.3135
     33 CA          1.7786   28.2529   10.8154 C.3     1  GLY1        0.1515
     34 H1         -0.0660   27.4255   11.1381 H       1  GLY1        0.1193
     35 H2         -0.0112   28.4665    9.8747 H       1  GLY1        0.1193
     36 C           1.5838   31.3485    7.0957 C.3     2  UNK2        0.0553
     37 C           2.7072   31.5287    6.0941 C.ar    2  UNK2       -0.0199
     38 C           3.8835   32.2007    6.4635 C.ar    2  UNK2       -0.0019
     39 C           4.9322   32.3632    5.5575 C.ar    2  UNK2        0.0293
     40 C           4.8098   31.8516    4.2747 C.ar    2  UNK2        0.1401
     41 F           5.8164   32.0027    3.4037 F       2  UNK2       -0.2042
     42 C           3.6578   31.1808    3.8837 C.ar    2  UNK2        0.0293
     43 C           2.6073   31.0177    4.7910 C.ar    2  UNK2       -0.0019
@<TRIPOS>BOND
     1    32    33    1
     2    32    34    1
     3    32    35    1
     4    33    28    1
     5    28    29    2
     6    28    30   am
     7    30    27    1
     8    30    31    1
     9    27    36    1
    10    27     1    1
    11    36    37    1
    12    37    38   ar
    13    37    43   ar
    14    38    39   ar
    15    39    40   ar
    16    40    41    1
    17    40    42   ar
    18    42    43   ar
    19     1     2    2
    20     1     3   am
    21     3     4    1
    22     3     7    1
    23     4     5    1
    24     5     6    1
    25     6     7    1
    26     7     8    1
    27     8     9    2
    28     8    10   am
    29    10    12    1
    30    10    11    1
    31    12    13    1
    32    13    14    2
    33    13    15   am
    34    15    17    1
    35    15    16    1
    36    17    18    1
    37    18    19    2
    38    18    20   am
    39    20    22    1
    40    20    21    1
    41    22    23    1
    42    23    24    2
    43    23    25    1
    44    25    26    1
#	Name:			CHEMBL1165259
#	Creating user name:	trannguyen
#	Creation time:		Tue Feb  8 18:26:14 2022


#	Modifying user name:	trannguyen
#	Modification time:	Tue Feb  8 18:26:14 2022

@<TRIPOS>MOLECULE
CHEMBL1165259
 61 63 0 0 0
SMALL
GASTEIGER

@<TRIPOS>ATOM
      1 CA          8.8343   33.2149    7.3720 C.3     3  TYR3        0.1530
      2 N           7.3987   33.5783    5.3812 N.am    4  VAL4       -0.2970
      3 C           7.8323   32.6590    6.3089 C.2     3  TYR3        0.2410
      4 O           7.3250   31.5285    6.3628 O.2     3  TYR3       -0.2733
      5 H           7.4266   34.5471    5.6943 H       4  VAL4        0.1499
      6 CA          6.4443   33.2348    4.3114 C.3     4  VAL4        0.1485
      7 C           4.9365   33.3981    4.7544 C.2     4  VAL4        0.2406
      8 O           4.2550   34.3819    4.4586 O.2     4  VAL4       -0.2733
      9 N           4.4097   32.3561    5.5151 N.am    5  ALA5       -0.2970
     10 H           5.0267   31.5926    5.7844 H       5  ALA5        0.1499
     11 CA          3.0221   32.3112    6.0597 C.3     5  ALA5        0.1486
     12 CB          2.2092   31.1125    5.5632 C.3     5  ALA5        0.0312
     13 C           3.0399   32.3643    7.6106 C.2     5  ALA5        0.2407
     14 O           2.9739   33.3993    8.2731 O.2     5  ALA5       -0.2733
     15 N           3.3411   31.1476    8.1893 N.am    6  GLU6       -0.2954
     16 H           3.3068   30.3445    7.5681 H       6  GLU6        0.1499
     17 CA          3.5313   30.9772    9.6297 C.3     6  GLU6        0.1718
     18 C           4.8558   30.2803    9.9006 C.2     6  GLU6        0.3318
     19 O           5.8298   30.3700    9.1302 O.2     6  GLU6       -0.2485
     20 OXT         4.9444   29.5698   11.0380 O.3     6  GLU6       -0.4791
     21 HXT         4.0581   29.4374   11.4677 H       6  GLU6        0.2951
     22 CB          2.3432   30.2569   10.3249 C.3     6  GLU6        0.0427
     23 CG          2.0657   28.8523    9.7455 C.3     6  GLU6        0.1116
     24 CD          2.1915   27.7968   10.8430 C.2     6  GLU6        0.3139
     25 OE1         2.2407   28.0528   12.0323 O.2     6  GLU6       -0.2503
     26 OE2         2.2301   26.5294   10.3466 O.3     6  GLU6       -0.4802
     27 HE2         2.1875   26.4536    9.3825 H       6  GLU6        0.2951
     28 CG1         7.6590   32.0359    2.4018 C.3     4  VAL4        0.0022
     29 CB          6.8163   31.8631    3.6673 C.3     4  VAL4        0.0269
     30 CG2         5.6731   30.8792    3.3801 C.3     4  VAL4        0.0022
     31 N          10.1724   33.1352    6.7182 N.am    3  TYR3       -0.2967
     32 C          11.2359   32.3534    7.1091 C.2     2  PRO2        0.2409
     33 O          11.8427   31.7464    6.2222 O.2     2  PRO2       -0.2733
     34 H          10.1178   33.1030    5.7055 H       3  TYR3        0.1499
     35 CA         11.7436   32.4140    8.5689 C.3     2  PRO2        0.1518
     36 CB         11.0601   31.3550    9.4390 C.3     2  PRO2        0.0310
     37 CG         10.1090   32.1409   10.3448 C.3     2  PRO2        0.0237
     38 CD         10.8038   33.4744   10.5237 C.3     2  PRO2        0.0939
     39 N          11.4746   33.6781    9.2582 N.am    2  PRO2       -0.2719
     40 C          12.2478   34.7545    8.9054 C.2     1  PHE1        0.2403
     41 O          13.0321   34.5971    7.9641 O.2     1  PHE1       -0.2734
     42 CA         12.2149   36.0319    9.7862 C.3     1  PHE1        0.1329
     43 N          13.5416   36.1904   10.4353 N.3     1  PHE1       -0.3148
     44 H1         13.8287   35.3008   10.8385 H       1  PHE1        0.1192
     45 H2         14.2177   36.3690    9.6869 H       1  PHE1        0.1192
     46 CB         11.8194   37.2949    8.9812 C.3     1  PHE1        0.0512
     47 CG         10.6460   38.0831    9.5255 C.ar    1  PHE1       -0.0203
     48 CD1        10.5379   38.3263   10.9037 C.ar    1  PHE1       -0.0042
     49 CE1         9.3954   38.9139   11.4402 C.ar    1  PHE1       -0.0003
     50 CZ          8.3731   39.3293   10.5940 C.ar    1  PHE1       -0.0000
     51 CE2         8.4847   39.1339    9.2173 C.ar    1  PHE1       -0.0003
     52 CD2         9.6112   38.5052    8.6841 C.ar    1  PHE1       -0.0042
     53 CB          8.4553   34.6471    7.8152 C.3     3  TYR3        0.0553
     54 CG          7.5312   34.7470    9.0170 C.ar    3  TYR3       -0.0198
     55 CD1         6.3863   33.9415    9.1311 C.ar    3  TYR3       -0.0011
     56 CE1         5.5462   34.0441   10.2493 C.ar    3  TYR3        0.0363
     57 CZ          5.8354   34.9719   11.2437 C.ar    3  TYR3        0.1337
     58 OH          5.0335   35.1310   12.3349 O.3     3  TYR3       -0.5055
     59 CE2         6.9674   35.7685   11.1555 C.ar    3  TYR3        0.0363
     60 CD2         7.8241   35.6386   10.0602 C.ar    3  TYR3       -0.0011
     61 HH          4.3234   34.4696   12.3023 H       3  TYR3        0.2922
@<TRIPOS>BOND
     1    28    29    1
     2    29    30    1
     3     6     2    1
     4     6     7    1
     5     6    29    1
     6     2     3   am
     7     2     5    1
     8     3     4    2
     9     1    53    1
    10     1    31    1
    11     1     3    1
    12    53    54    1
    13    54    55   ar
    14    54    60   ar
    15    55    56   ar
    16    56    57   ar
    17    57    58    1
    18    57    59   ar
    19    58    61    1
    20    59    60   ar
    21    31    32   am
    22    31    34    1
    23    32    33    2
    24    35    36    1
    25    35    39    1
    26    35    32    1
    27    36    37    1
    28    37    38    1
    29    38    39    1
    30    39    40   am
    31    40    41    2
    32    40    42    1
    33    42    43    1
    34    42    46    1
    35    43    44    1
    36    43    45    1
    37    46    47    1
    38    47    48   ar
    39    47    52   ar
    40    48    49   ar
    41    49    50   ar
    42    50    51   ar
    43    51    52   ar
    44     7     8    2
    45     7     9   am
    46     9    11    1
    47     9    10    1
    48    11    12    1
    49    11    13    1
    50    13    14    2
    51    13    15   am
    52    15    17    1
    53    15    16    1
    54    17    22    1
    55    17    18    1
    56    22    23    1
    57    23    24    1
    58    24    25    2
    59    24    26    1
    60    26    27    1
    61    18    19    2
    62    18    20    1
    63    20    21    1
#	Name:			CHEMBL1167
#	Creating user name:	trannguyen
#	Creation time:		Tue Feb  8 18:26:14 2022


#	Modifying user name:	trannguyen
#	Modification time:	Tue Feb  8 18:26:14 2022

@<TRIPOS>MOLECULE
CHEMBL1167
 28 30 0 0 0
SMALL
GASTEIGER

@<TRIPOS>ATOM
      1 C           3.2911   34.5790    9.6605 C.3     1  UNL1        0.1128
      2 C           2.3911   33.3166    9.8645 C.3     1  UNL1        0.1440
      3 O           0.9991   33.6466    9.9544 O.3     1  UNL1       -0.3815
      4 C           2.5941   32.2259    8.7693 C.3     1  UNL1        0.1124
      5 C           4.0899   31.8292    8.7206 C.3     1  UNL1        0.1567
      6 O           4.3961   31.1151    9.9324 O.3     1  UNL1       -0.3804
      7 C           5.0066   33.0590    8.4985 C.3     1  UNL1        0.1744
      8 O           6.4072   32.7180    8.3974 O.3     1  UNL1       -0.3239
      9 C           6.9815   32.3213    9.6448 C.3     1  UNL1        0.2960
     10 O           8.3899   32.0739    9.5151 O.3     1  UNL1       -0.3286
     11 C           9.1419   33.2564    9.2457 C.3     1  UNL1        0.1255
     12 C          10.5750   32.8254    8.9628 C.3     1  UNL1        0.0326
     13 C           9.0724   34.1748   10.4524 C.3     1  UNL1        0.0993
     14 C           7.6207   34.5172   10.6837 C.2     1  UNL1        0.2087
     15 O           7.2639   35.6911   10.7888 O.2     1  UNL1       -0.2907
     16 C           6.6526   33.3106   10.8195 C.3     1  UNL1        0.2908
     17 O           6.9712   32.7009   12.0797 O.3     1  UNL1       -0.3547
     18 O           5.2513   33.6256   10.8483 O.3     1  UNL1       -0.3238
     19 C           4.7905   34.1339    9.5789 C.3     1  UNL1        0.1643
     20 H           0.6408   33.4380    9.0663 H       1  UNL1        0.2105
     21 H           4.3473   31.7265   10.6934 H       1  UNL1        0.2105
     22 H           7.4117   31.8515   11.9026 H       1  UNL1        0.2134
     23 C           2.4826   36.7405    8.7650 C.3     1  UNL1        0.0860
     24 N           2.9969   35.4058    8.4490 N.3     1  UNL1       -0.2934
     25 H           3.8856   35.5613    7.9629 H       1  UNL1        0.1234
     26 N           1.9765   32.6993    7.5104 N.3     1  UNL1       -0.2934
     27 C           2.0786   31.7520    6.4126 C.3     1  UNL1        0.0860
     28 H           2.3808   33.6064    7.2438 H       1  UNL1        0.1234
@<TRIPOS>BOND
     1    23    24    1
     2    24    25    1
     3     1     2    1
     4     1    19    1
     5     1    24    1
     6     2     4    1
     7     2     3    1
     8     3    20    1
     9     4    26    1
    10     4     5    1
    11    26    27    1
    12    26    28    1
    13     5     7    1
    14     5     6    1
    15     6    21    1
    16     7     8    1
    17     7    19    1
    18     8     9    1
    19     9    10    1
    20     9    16    1
    21    10    11    1
    22    11    13    1
    23    11    12    1
    24    13    14    1
    25    14    15    2
    26    14    16    1
    27    16    17    1
    28    16    18    1
    29    17    22    1
    30    18    19    1
#	Name:			CHEMBL1168
#	Creating user name:	trannguyen
#	Creation time:		Tue Feb  8 18:26:14 2022


#	Modifying user name:	trannguyen
#	Modification time:	Tue Feb  8 18:26:14 2022

@<TRIPOS>MOLECULE
CHEMBL1168
 32 34 0 0 0
SMALL
GASTEIGER

@<TRIPOS>ATOM
      1 N           2.7939   33.7729    7.7252 N.3     1  ALA1       -0.2835
      2 H           1.7781   33.7013    7.7597 H       1  ALA1        0.1241
      3 CA          3.3881   33.1702    8.9528 C.3     1  ALA1        0.1321
      4 CB          4.0041   34.2995    9.7966 C.3     1  ALA1        0.0270
      5 C           2.3584   32.3922    9.8233 C.2     1  ALA1        0.2402
      6 O           1.5172   32.9873   10.4998 O.2     1  ALA1       -0.2734
      7 N           2.4040   31.0017    9.7929 N.am    2  UNK2       -0.2720
      8 C           1.4262   30.1595   10.5230 C.3     2  UNK2        0.1745
      9 C           2.2174   28.8906   10.8557 C.3     2  UNK2        0.0329
     10 C           3.1646   28.7450    9.6559 C.3     2  UNK2        0.0204
     11 C           4.4745   28.0237    9.9794 C.3     2  UNK2        0.0018
     12 C           5.5634   29.0935    9.9574 C.3     2  UNK2        0.0018
     13 C           4.8170   30.3990   10.1525 C.3     2  UNK2        0.0198
     14 C           3.5372   30.1982    9.3444 C.3     2  UNK2        0.0758
     15 C           0.1901   29.7640    9.6929 C.2     2  UNK2        0.3320
     16 O          -0.1688   30.3561    8.6854 O.2     2  UNK2       -0.2485
     17 O          -0.5242   28.7373   10.2131 O.3     2  UNK2       -0.4790
     18 H          -0.1297   28.4156   11.0514 H       2  UNK2        0.2951
     19 C           3.3118   33.3359    6.3860 C.3     0  UNK0        0.1550
     20 C           2.1482   32.6805    5.6121 C.2     0  UNK0        0.3314
     21 O           1.3417   31.9177    6.1163 O.2     0  UNK0       -0.2486
     22 O           2.3336   32.9254    4.2748 O.3     0  UNK0       -0.4476
     23 C           3.3519   30.8425    3.6677 C.3     0  UNK0        0.0513
     24 C           2.1978   31.7948    3.4001 C.3     0  UNK0        0.2086
     25 C           4.5263   32.3786    6.6065 C.3     0  UNK0        0.0318
     26 C           5.9548   32.9407    6.3562 C.3     0  UNK0        0.0283
     27 C           7.0764   32.3739    7.2370 C.ar    0  UNK0       -0.0221
     28 C           7.8957   31.3158    6.8153 C.ar    0  UNK0       -0.0043
     29 C           8.7692   30.6708    7.7032 C.ar    0  UNK0       -0.0003
     30 C           8.8444   31.0712    9.0335 C.ar    0  UNK0       -0.0000
     31 C           8.0969   32.1649    9.4585 C.ar    0  UNK0       -0.0003
     32 C           7.2235   32.8117    8.5690 C.ar    0  UNK0       -0.0043
@<TRIPOS>BOND
     1    23    24    1
     2    24    22    1
     3    22    20    1
     4    20    21    2
     5    19    25    1
     6    19     1    1
     7    19    20    1
     8    25    26    1
     9    26    27    1
    10    27    28   ar
    11    27    32   ar
    12    28    29   ar
    13    29    30   ar
    14    30    31   ar
    15    31    32   ar
    16     1     3    1
    17     1     2    1
    18     3     4    1
    19     3     5    1
    20     5     6    2
    21     5     7   am
    22     7     8    1
    23     7    14    1
    24     8     9    1
    25     8    15    1
    26    15    16    2
    27    15    17    1
    28    17    18    1
    29     9    10    1
    30    10    11    1
    31    10    14    1
    32    11    12    1
    33    12    13    1
    34    13    14    1
#	Name:			CHEMBL1169
#	Creating user name:	trannguyen
#	Creation time:		Tue Feb  8 18:26:14 2022


#	Modifying user name:	trannguyen
#	Modification time:	Tue Feb  8 18:26:14 2022

@<TRIPOS>MOLECULE
CHEMBL1169
 15 15 0 0 0
SMALL
GASTEIGER

@<TRIPOS>ATOM
      1 N           1.4036   32.2624    7.8615 N.pl3   1  UNL1       -0.3569
      2 C           1.5540   31.0559    8.5537 C.ar    1  UNL1        0.0446
      3 C           2.8292   30.6090    8.9139 C.ar    1  UNL1        0.0145
      4 C           2.9929   29.4785    9.7225 C.ar    1  UNL1        0.0107
      5 C           1.8688   28.8116   10.2239 C.ar    1  UNL1        0.1091
      6 C           0.5913   29.2683    9.8801 C.ar    1  UNL1        0.1411
      7 O          -0.5606   28.6556   10.2986 O.3     1  UNL1       -0.5052
      8 C           0.4378   30.4032    9.0833 C.ar    1  UNL1        0.0509
      9 H           2.1768   32.4890    7.2439 H       1  UNL1        0.1424
     10 H           0.5045   32.3592    7.3975 H       1  UNL1        0.1424
     11 H          -0.3320   27.7749   10.6713 H       1  UNL1        0.2922
     12 C           1.9987   27.6277   11.1015 C.2     1  UNL1        0.3410
     13 O           1.8515   27.7094   12.3114 O.2     1  UNL1       -0.2450
     14 O           2.3668   26.4946   10.4718 O.3     1  UNL1       -0.4770
     15 H           2.6823   26.6153    9.5568 H       1  UNL1        0.2954
@<TRIPOS>BOND
     1     1     2    1
     2     1     9    1
     3     1    10    1
     4     2     3   ar
     5     2     8   ar
     6     3     4   ar
     7     4     5   ar
     8     5    12    1
     9     5     6   ar
    10    12    13    2
    11    12    14    1
    12    14    15    1
    13     6     7    1
    14     6     8   ar
    15     7    11    1
#	Name:			CHEMBL116
#	Creating user name:	trannguyen
#	Creation time:		Tue Feb  8 18:26:14 2022


#	Modifying user name:	trannguyen
#	Modification time:	Tue Feb  8 18:26:14 2022

@<TRIPOS>MOLECULE
CHEMBL116
 39 41 0 0 0
SMALL
GASTEIGER

@<TRIPOS>ATOM
      1 C           6.9316   32.4254   10.2838 C.3     1  UNL1        0.1464
      2 O           6.7831   32.5757   11.7006 O.3     1  UNL1       -0.3813
      3 H           7.6805   32.7391   12.0472 H       1  UNL1        0.2105
      4 C           7.2764   33.8252    9.6763 C.3     1  UNL1        0.1266
      5 N           8.4699   33.7467    8.7223 N.3     1  UNL1       -0.1530
      6 S          10.0382   34.1512    9.4072 S.O2    1  UNL1        0.0634
      7 O          10.6206   35.2573    8.6736 O.2     1  UNL1       -0.1528
      8 O           9.9502   34.1922   10.8517 O.2     1  UNL1       -0.1528
      9 C          10.9735   32.6899    8.9629 C.ar    1  UNL1        0.1223
     10 C          12.2003   32.7946    8.3081 C.ar    1  UNL1        0.0212
     11 C          13.0287   31.6650    8.2189 C.ar    1  UNL1        0.0155
     12 C          12.6177   30.4224    8.7118 C.ar    1  UNL1        0.0416
     13 N          13.4279   29.2943    8.5353 N.pl3   1  UNL1       -0.3570
     14 C          11.2963   30.2976    9.1474 C.ar    1  UNL1        0.0155
     15 C          10.4797   31.4276    9.2978 C.ar    1  UNL1        0.0212
     16 H          14.4243   29.4944    8.5738 H       1  UNL1        0.1424
     17 H          13.1842   28.4925    9.1088 H       1  UNL1        0.1424
     18 C           8.2399   34.1410    7.2866 C.3     1  UNL1        0.0958
     19 C           9.7185   33.1251    5.5401 C.3     1  UNL1        0.0015
     20 C           8.3448   33.0080    6.2236 C.3     1  UNL1        0.0178
     21 C           8.2012   31.5492    6.6761 C.3     1  UNL1        0.0015
     22 C           5.6326   31.7573    9.7132 C.3     1  UNL1        0.1073
     23 N           5.3507   32.2483    8.3614 N.am    1  UNL1       -0.2695
     24 C           4.3430   33.1202    8.0388 C.2     1  UNL1        0.4016
     25 O           3.5299   33.5656    8.7639 O.2     1  UNL1       -0.2264
     26 H           6.0072   31.9757    7.6040 H       1  UNL1        0.1528
     27 O           4.5529   33.4270    6.7078 O.3     1  UNL1       -0.4357
     28 C           4.5948   32.3273    5.7863 C.3     1  UNL1        0.2024
     29 C           3.2084   31.8029    5.4823 C.3     1  UNL1        0.0784
     30 C           3.4165   31.0598    4.1827 C.3     1  UNL1        0.1461
     31 O           4.4296   31.7657    3.4630 O.3     1  UNL1       -0.3498
     32 C           5.1529   32.5896    4.3900 C.3     1  UNL1        0.1856
     33 C           5.6417   30.1685    9.7851 C.3     1  UNL1        0.0485
     34 C           4.3068   29.4238    9.9401 C.ar    1  UNL1       -0.0204
     35 C           3.1142   30.1735   10.0173 C.ar    1  UNL1       -0.0042
     36 C           1.8815   29.5643   10.2981 C.ar    1  UNL1       -0.0003
     37 C           1.7913   28.1797   10.3747 C.ar    1  UNL1       -0.0000
     38 C           2.9370   27.4134   10.1838 C.ar    1  UNL1       -0.0003
     39 C           4.1862   28.0294   10.0072 C.ar    1  UNL1       -0.0042
@<TRIPOS>BOND
     1    19    20    1
     2    20    21    1
     3    20    18    1
     4    18     5    1
     5     5     4    1
     6     5     6    1
     7     4     1    1
     8     1     2    1
     9     2     3    1
    10    22    33    1
    11    22    23    1
    12    22     1    1
    13    33    34    1
    14    34    35   ar
    15    34    39   ar
    16    35    36   ar
    17    36    37   ar
    18    37    38   ar
    19    38    39   ar
    20    23    24   am
    21    23    26    1
    22    24    25    2
    23    24    27    1
    24    27    28    1
    25    28    29    1
    26    28    32    1
    27    29    30    1
    28    30    31    1
    29    31    32    1
    30     6     7    2
    31     6     8    2
    32     6     9    1
    33     9    10   ar
    34     9    15   ar
    35    10    11   ar
    36    11    12   ar
    37    12    13    1
    38    12    14   ar
    39    13    16    1
    40    13    17    1
    41    14    15   ar
#	Name:			CHEMBL1172
#	Creating user name:	trannguyen
#	Creation time:		Tue Feb  8 18:26:14 2022


#	Modifying user name:	trannguyen
#	Modification time:	Tue Feb  8 18:26:14 2022

@<TRIPOS>MOLECULE
CHEMBL1172
 23 26 0 0 0
SMALL
GASTEIGER

@<TRIPOS>ATOM
      1 CL          7.2701   34.8892   11.2139 Cl      1  UNL1       -0.0823
      2 C           6.1079   34.0121   10.2962 C.ar    1  UNL1        0.0574
      3 C           4.9939   34.6728    9.7822 C.ar    1  UNL1        0.0114
      4 C           4.0519   33.9628    9.0370 C.ar    1  UNL1        0.0006
      5 C           4.2341   32.5945    8.7939 C.ar    1  UNL1       -0.0031
      6 C           5.3435   31.9232    9.3369 C.ar    1  UNL1       -0.0210
      7 C           6.2852   32.6442   10.0838 C.ar    1  UNL1        0.0071
      8 C           5.4802   30.4336    9.1351 C.3     1  UNL1        0.0311
      9 C           4.4067   29.6451    9.8972 C.3     1  UNL1        0.0326
     10 C           2.9421   29.8301    9.5528 C.ar    1  UNL1       -0.0042
     11 C           2.0296   28.9640   10.1825 C.ar    1  UNL1       -0.0012
     12 C           0.6629   29.0941    9.9676 C.ar    1  UNL1        0.0204
     13 C           0.2335   30.1019    9.1302 C.ar    1  UNL1        0.0988
     14 N           1.0655   30.9582    8.5054 N.ar    1  UNL1       -0.2442
     15 C           2.4050   30.8089    8.7046 C.ar    1  UNL1        0.0767
     16 C           3.2492   31.8161    8.0067 C.2     1  UNL1        0.0092
     17 C           3.1972   31.9731    6.6564 C.2     1  UNL1       -0.0400
     18 C           2.2913   31.1971    5.7095 C.3     1  UNL1        0.0392
     19 C           1.3966   32.1682    4.9258 C.3     1  UNL1        0.0730
     20 N           2.1776   33.1555    4.1617 N.3     1  UNL1       -0.2969
     21 C           3.0953   33.8915    5.0440 C.3     1  UNL1        0.0730
     22 C           4.0231   32.9617    5.8433 C.3     1  UNL1        0.0392
     23 H           1.5365   33.8149    3.7224 H       1  UNL1        0.1233
@<TRIPOS>BOND
     1     1     2    1
     2     2     3   ar
     3     2     7   ar
     4     3     4   ar
     5     4     5   ar
     6     5     6   ar
     7     5    16    1
     8     6     7   ar
     9     6     8    1
    10     8     9    1
    11     9    10    1
    12    10    11   ar
    13    10    15   ar
    14    11    12   ar
    15    12    13   ar
    16    13    14   ar
    17    14    15   ar
    18    15    16    1
    19    16    17    2
    20    17    18    1
    21    17    22    1
    22    18    19    1
    23    19    20    1
    24    20    21    1
    25    20    23    1
    26    21    22    1
#	Name:			CHEMBL117405
#	Creating user name:	trannguyen
#	Creation time:		Tue Feb  8 18:26:14 2022


#	Modifying user name:	trannguyen
#	Modification time:	Tue Feb  8 18:26:14 2022

@<TRIPOS>MOLECULE
CHEMBL117405
 21 22 0 0 0
SMALL
GASTEIGER

@<TRIPOS>ATOM
      1 O           3.9593   31.5809    9.3876 O.3     1  UNL1       -0.4728
      2 C           3.6915   30.2534    9.6459 C.ar    1  UNL1        0.1400
      3 C           4.6788   29.2825    9.8983 C.ar    1  UNL1        0.0370
      4 C           4.3506   27.9496   10.1436 C.ar    1  UNL1        0.0046
      5 C           3.0234   27.5264   10.1621 C.ar    1  UNL1        0.0172
      6 C           2.0405   28.4925    9.9286 C.ar    1  UNL1        0.0596
      7 N           0.6683   28.3529    9.9021 N.ar    1  UNL1       -0.3519
      8 H           0.1781   27.4893   10.0662 H       1  UNL1        0.1660
      9 C           0.0806   29.5566    9.6134 C.ar    1  UNL1        0.0725
     10 C           1.0827   30.4884    9.4705 C.ar    1  UNL1        0.0229
     11 C           2.3371   29.8332    9.6702 C.ar    1  UNL1        0.0510
     12 C           4.8780   31.8352    8.3097 C.3     1  UNL1        0.2358
     13 C           4.3608   33.0046    7.4642 C.3     1  UNL1        0.1697
     14 O           5.2594   33.2725    6.3756 O.3     1  UNL1       -0.3793
     15 H           6.1447   33.3452    6.7810 H       1  UNL1        0.2106
     16 C           2.9440   32.7391    6.9069 C.3     1  UNL1        0.1020
     17 N           2.7748   31.3817    6.3581 N.3     1  UNL1       -0.2964
     18 H           3.6880   30.9188    6.3908 H       1  UNL1        0.1233
     19 C           1.5700   32.6838    4.5799 C.3     1  UNL1        0.0171
     20 C           2.2429   31.3700    4.9864 C.3     1  UNL1        0.0541
     21 C           3.3831   31.0667    4.0084 C.3     1  UNL1        0.0171
@<TRIPOS>BOND
     1    19    20    1
     2    20    21    1
     3    20    17    1
     4    17    16    1
     5    17    18    1
     6    13    14    1
     7    13    12    1
     8    13    16    1
     9    14    15    1
    10    12     1    1
    11     1     2    1
    12     2     3   ar
    13     2    11   ar
    14     3     4   ar
    15     4     5   ar
    16     5     6   ar
    17     6     7   ar
    18     6    11   ar
    19     7     8    1
    20     7     9   ar
    21     9    10   ar
    22    10    11   ar
#	Name:			CHEMBL1177
#	Creating user name:	trannguyen
#	Creation time:		Tue Feb  8 18:26:14 2022


#	Modifying user name:	trannguyen
#	Modification time:	Tue Feb  8 18:26:14 2022

@<TRIPOS>MOLECULE
CHEMBL1177
 15 16 0 0 0
SMALL
GASTEIGER

@<TRIPOS>ATOM
      1 N          -0.5026   28.4975   10.2646 N.pl3   1  UNL1       -0.3151
      2 C           0.6824   29.1327   10.2167 C.2     1  UNL1        0.2729
      3 N           1.8170   28.7096   10.6314 N.am    1  UNL1       -0.1280
      4 C           2.6982   29.7214   10.3556 C.2     1  UNL1        0.2937
      5 O           3.8915   29.7098   10.6263 O.2     1  UNL1       -0.2686
      6 C           1.9564   30.8722    9.7001 C.3     1  UNL1        0.2681
      7 O           0.6195   30.3515    9.6397 O.2     1  UNL1       -0.4412
      8 H          -0.4423   27.4959   10.4031 H       1  UNL1        0.1464
      9 H          -1.1933   28.8003    9.5905 H       1  UNL1        0.1464
     10 C           2.4913   31.2652    8.3405 C.ar    1  UNL1        0.0263
     11 C           3.7223   31.9200    8.1787 C.ar    1  UNL1       -0.0003
     12 C           4.1838   32.2675    6.9069 C.ar    1  UNL1       -0.0002
     13 C           3.4226   31.9664    5.7801 C.ar    1  UNL1       -0.0000
     14 C           2.1981   31.3193    5.9228 C.ar    1  UNL1       -0.0002
     15 C           1.7351   30.9716    7.1932 C.ar    1  UNL1       -0.0003
@<TRIPOS>BOND
     1     1     2    1
     2     1     8    1
     3     1     9    1
     4     2     3    2
     5     2     7    1
     6     3     4    1
     7     4     5    2
     8     4     6    1
     9     6    10    1
    10     6     7    1
    11    10    11   ar
    12    10    15   ar
    13    11    12   ar
    14    12    13   ar
    15    13    14   ar
    16    14    15   ar
#	Name:			CHEMBL11804
#	Creating user name:	trannguyen
#	Creation time:		Tue Feb  8 18:26:14 2022


#	Modifying user name:	trannguyen
#	Modification time:	Tue Feb  8 18:26:14 2022

@<TRIPOS>MOLECULE
CHEMBL11804
 35 37 0 0 0
SMALL
GASTEIGER

@<TRIPOS>ATOM
      1 C           4.0652   32.0221    6.4747 C.2     1  UNL1        0.0371
      2 C           5.4150   32.2230    6.4936 C.2     1  UNL1        0.0030
      3 C           6.1605   32.3933    5.2177 C.ar    1  UNL1        0.0002
      4 C           6.5744   33.6733    4.8144 C.ar    1  UNL1        0.0023
      5 C           7.2331   33.8487    3.5974 C.ar    1  UNL1        0.0296
      6 C           7.4753   32.7465    2.7872 C.ar    1  UNL1        0.1401
      7 F           8.1081   32.9145    1.6189 F       1  UNL1       -0.2042
      8 C           7.0726   31.4715    3.1703 C.ar    1  UNL1        0.0296
      9 C           6.4150   31.2912    4.3888 C.ar    1  UNL1        0.0023
     10 C           6.1187   32.3755    7.7974 C.ar    1  UNL1        0.0002
     11 C           6.0479   33.5968    8.4854 C.ar    1  UNL1        0.0023
     12 C           6.6390   33.7349    9.7422 C.ar    1  UNL1        0.0296
     13 C           7.2996   32.6530   10.3094 C.ar    1  UNL1        0.1401
     14 F           7.8369   32.7742   11.5303 F       1  UNL1       -0.2042
     15 C           7.4067   31.4441    9.6302 C.ar    1  UNL1        0.0296
     16 C           6.8229   31.3045    8.3676 C.ar    1  UNL1        0.0023
     17 C           2.9363   34.5071    5.0385 C.3     1  UNL1        0.1573
     18 N           2.9502   33.1412    4.5938 N.ar    1  UNL1       -0.2113
     19 N           2.3522   32.8294    3.4347 N.ar    1  UNL1       -0.0429
     20 N           2.4314   31.5109    3.3420 N.ar    1  UNL1       -0.0227
     21 N           3.0873   30.9756    4.4243 N.ar    1  UNL1       -0.1081
     22 C           3.3882   31.9961    5.2118 C.ar    1  UNL1        0.1838
     23 C           3.2765   31.9368    7.7071 C.2     1  UNL1        0.0009
     24 C           1.9597   31.6674    7.6900 C.2     1  UNL1        0.0027
     25 C           1.0952   31.4654    8.8917 C.3     1  UNL1        0.1349
     26 O           0.0460   32.4199    8.7360 O.3     1  UNL1       -0.3800
     27 H          -0.4673   32.4276    9.5586 H       1  UNL1        0.2108
     28 C           0.4929   30.0523    9.0165 C.3     1  UNL1        0.0634
     29 C           0.8897   29.2346   10.2659 C.3     1  UNL1        0.1188
     30 O           0.0260   28.0977   10.3749 O.3     1  UNL1       -0.3840
     31 H           0.4100   27.4881   11.0302 H       1  UNL1        0.2104
     32 C           2.3418   28.7747   10.3894 C.3     1  UNL1        0.0710
     33 C           2.5457   27.3224   10.7106 C.2     1  UNL1        0.0528
     34 O           2.8615   26.5525    9.7497 O.co2   1  UNL1       -0.5491
     35 O           2.2046   26.8436   11.8063 O.co2   1  UNL1       -0.5491
@<TRIPOS>UNITY_ATOM_ATTR
34 1
charge -1
@<TRIPOS>BOND
     1    17    18    1
     2    18    19   ar
     3    18    22   ar
     4    19    20   ar
     5    20    21   ar
     6    21    22   ar
     7    22     1    1
     8     1    23    1
     9     1     2    2
    10    23    24    2
    11    24    25    1
    12    25    26    1
    13    25    28    1
    14    26    27    1
    15    28    29    1
    16    29    30    1
    17    29    32    1
    18    30    31    1
    19    32    33    1
    20    33    34   ar
    21    33    35   ar
    22     2     3    1
    23     2    10    1
    24     3     4   ar
    25     3     9   ar
    26     4     5   ar
    27     5     6   ar
    28     6     7    1
    29     6     8   ar
    30     8     9   ar
    31    10    11   ar
    32    10    16   ar
    33    11    12   ar
    34    12    13   ar
    35    13    14    1
    36    13    15   ar
    37    15    16   ar
#	Name:			CHEMBL11891
#	Creating user name:	trannguyen
#	Creation time:		Tue Feb  8 18:26:14 2022


#	Modifying user name:	trannguyen
#	Modification time:	Tue Feb  8 18:26:14 2022

@<TRIPOS>MOLECULE
CHEMBL11891
 34 36 0 0 0
SMALL
GASTEIGER

@<TRIPOS>ATOM
      1 C           4.4052   33.0586    8.4649 C.2     1  UNL1        0.0860
      2 C           4.9756   32.8847    7.2146 C.2     1  UNL1        0.0178
      3 C           6.5026   32.7898    7.0461 C.ar    1  UNL1        0.0016
      4 C           7.2997   33.9514    7.0410 C.ar    1  UNL1        0.0024
      5 C           8.6888   33.8990    6.8069 C.ar    1  UNL1        0.0296
      6 C           9.3164   32.6790    6.6074 C.ar    1  UNL1        0.1401
      7 F          10.6387   32.6319    6.3900 F       1  UNL1       -0.2042
      8 C           8.5756   31.5107    6.6154 C.ar    1  UNL1        0.0296
      9 C           7.1804   31.5715    6.7952 C.ar    1  UNL1        0.0024
     10 C           4.0854   32.6534    5.9652 C.ar    1  UNL1        0.0016
     11 C           3.6910   33.7144    5.1168 C.ar    1  UNL1        0.0024
     12 C           3.0079   33.4849    3.8994 C.ar    1  UNL1        0.0296
     13 C           2.6652   32.1940    3.5280 C.ar    1  UNL1        0.1401
     14 F           2.0336   31.9732    2.3642 F       1  UNL1       -0.2042
     15 C           2.9809   31.1318    4.3619 C.ar    1  UNL1        0.0296
     16 C           3.6976   31.3572    5.5611 C.ar    1  UNL1        0.0024
     17 N           5.1196   33.3579    9.6846 N.ar    1  UNL1       -0.1886
     18 C           5.0902   34.5708   10.3856 C.ar    1  UNL1        0.2258
     19 N           5.8140   34.5036   11.4759 N.ar    1  UNL1       -0.1045
     20 N           6.3665   33.2617   11.4651 N.ar    1  UNL1       -0.0222
     21 N           5.9808   32.5728   10.4001 N.ar    1  UNL1       -0.0385
     22 C           2.3121   31.7791    8.9621 C.2     1  UNL1        0.0041
     23 C           2.9498   32.9248    8.6631 C.2     1  UNL1        0.0171
     24 C           0.8268   31.6155    9.1854 C.3     1  UNL1        0.1350
     25 O           0.1229   32.3887    8.2092 O.3     1  UNL1       -0.3800
     26 H           0.3380   32.0285    7.3350 H       1  UNL1        0.2108
     27 C           0.2774   30.1803    9.1318 C.3     1  UNL1        0.0634
     28 C           0.6812   29.2928   10.3150 C.3     1  UNL1        0.1188
     29 O          -0.3823   28.3658   10.5606 O.3     1  UNL1       -0.3840
     30 H           0.0132   27.5609   10.9537 H       1  UNL1        0.2104
     31 C           2.0195   28.5642   10.1259 C.3     1  UNL1        0.0710
     32 O           2.0615   28.0451   12.4258 O.co2   1  UNL1       -0.5491
     33 C           2.2193   27.6059   11.2656 C.2     1  UNL1        0.0528
     34 O           2.2057   26.3510   11.0087 O.co2   1  UNL1       -0.5491
@<TRIPOS>UNITY_ATOM_ATTR
32 1
charge -1
@<TRIPOS>BOND
     1    32    33   ar
     2    33    34   ar
     3    33    31    1
     4    28    29    1
     5    28    27    1
     6    28    31    1
     7    29    30    1
     8    24    25    1
     9    24    22    1
    10    24    27    1
    11    25    26    1
    12    22    23    2
    13    23     1    1
    14     1     2    2
    15     1    17    1
    16     2     3    1
    17     2    10    1
    18     3     4   ar
    19     3     9   ar
    20     4     5   ar
    21     5     6   ar
    22     6     7    1
    23     6     8   ar
    24     8     9   ar
    25    10    11   ar
    26    10    16   ar
    27    11    12   ar
    28    12    13   ar
    29    13    14    1
    30    13    15   ar
    31    15    16   ar
    32    17    18   ar
    33    17    21   ar
    34    18    19   ar
    35    19    20   ar
    36    20    21   ar
#	Name:			CHEMBL118
#	Creating user name:	trannguyen
#	Creation time:		Tue Feb  8 18:26:14 2022


#	Modifying user name:	trannguyen
#	Modification time:	Tue Feb  8 18:26:14 2022

@<TRIPOS>MOLECULE
CHEMBL118
 28 30 0 0 0
SMALL
GASTEIGER

@<TRIPOS>ATOM
      1 C           4.9843   32.6143    7.1825 C.ar    1  UNL1        0.0842
      2 C           4.8659   33.2526    5.9557 C.ar    1  UNL1        0.0440
      3 C           3.6042   32.9235    5.4289 C.ar    1  UNL1        0.1740
      4 N           2.9272   32.1502    6.2909 N.ar    1  UNL1       -0.1611
      5 N           3.7751   31.9073    7.3398 N.ar    1  UNL1       -0.2297
      6 C           9.5099   33.1288   10.8126 C.3     1  UNL1        0.0310
      7 C           8.3425   33.0062    9.8754 C.ar    1  UNL1       -0.0218
      8 C           8.4269   32.1662    8.7592 C.ar    1  UNL1       -0.0042
      9 C           7.3230   31.9739    7.9115 C.ar    1  UNL1        0.0012
     10 C           6.1568   32.7268    8.0750 C.ar    1  UNL1        0.0177
     11 C           6.0760   33.5539    9.2123 C.ar    1  UNL1        0.0012
     12 C           7.1409   33.6713   10.1166 C.ar    1  UNL1       -0.0042
     13 C           3.3253   30.9721    8.3359 C.ar    1  UNL1        0.0829
     14 C           4.2179   30.2871    9.1666 C.ar    1  UNL1        0.0205
     15 C           3.7471   29.3486   10.1017 C.ar    1  UNL1        0.0214
     16 C           2.3772   29.0835   10.1988 C.ar    1  UNL1        0.1218
     17 C           1.4742   29.7345    9.3615 C.ar    1  UNL1        0.0214
     18 C           1.9451   30.6759    8.4394 C.ar    1  UNL1        0.0205
     19 S           1.7702   27.9033   11.3795 S.O2    1  UNL1        0.0572
     20 N           0.1253   27.9043   11.0136 N.3     1  UNL1       -0.2035
     21 O           2.2512   26.5835   10.9978 O.2     1  UNL1       -0.1532
     22 O           1.9342   28.4364   12.7015 O.2     1  UNL1       -0.1532
     23 H          -0.1256   27.0089   10.5938 H       1  UNL1        0.1442
     24 H          -0.1529   28.6949   10.4332 H       1  UNL1        0.1442
     25 C           3.0466   33.3847    4.1056 C.3     1  UNL1        0.4366
     26 F           4.0383   33.7563    3.2458 F       1  UNL1       -0.1643
     27 F           2.3361   32.4175    3.4672 F       1  UNL1       -0.1643
     28 F           2.2310   34.4641    4.2328 F       1  UNL1       -0.1643
@<TRIPOS>BOND
     1     6     7    1
     2     7     8   ar
     3     7    12   ar
     4     8     9   ar
     5     9    10   ar
     6    10     1    1
     7    10    11   ar
     8     1     2   ar
     9     1     5   ar
    10     2     3   ar
    11     3    25    1
    12     3     4   ar
    13    25    26    1
    14    25    27    1
    15    25    28    1
    16     4     5   ar
    17     5    13    1
    18    13    14   ar
    19    13    18   ar
    20    14    15   ar
    21    15    16   ar
    22    16    19    1
    23    16    17   ar
    24    19    20    1
    25    19    21    2
    26    19    22    2
    27    20    23    1
    28    20    24    1
    29    17    18   ar
    30    11    12   ar
#	Name:			CHEMBL1191
#	Creating user name:	trannguyen
#	Creation time:		Tue Feb  8 18:26:14 2022


#	Modifying user name:	trannguyen
#	Modification time:	Tue Feb  8 18:26:14 2022

@<TRIPOS>MOLECULE
CHEMBL1191
 20 21 0 0 0
SMALL
GASTEIGER

@<TRIPOS>ATOM
      1 S           4.2000   31.9074    3.9709 S.O2    1  UNL1        0.0751
      2 O           3.9078   33.1857    3.3514 O.2     1  UNL1       -0.1499
      3 O           3.7611   30.6587    3.3978 O.2     1  UNL1       -0.1499
      4 C           3.5781   31.9743    5.6341 C.ar    1  UNL1        0.1253
      5 C           4.3097   32.6086    6.6389 C.ar    1  UNL1        0.0214
      6 C           3.7954   32.6496    7.9382 C.ar    1  UNL1        0.0155
      7 C           2.5838   32.0231    8.2496 C.ar    1  UNL1        0.0416
      8 N           2.0162   32.1821    9.5178 N.pl3   1  UNL1       -0.3570
      9 C           1.8394   31.4428    7.2167 C.ar    1  UNL1        0.0155
     10 C           2.3363   31.4005    5.9124 C.ar    1  UNL1        0.0214
     11 H           2.6910   32.3316   10.2614 H       1  UNL1        0.1424
     12 H           1.3301   31.4733    9.7577 H       1  UNL1        0.1424
     13 N           5.8673   31.8543    4.2706 N.pl3   1  UNL1       -0.1923
     14 H           6.1477   32.7369    4.6970 H       1  UNL1        0.1758
     15 C           8.4859   32.3167   -0.2186 C.3     1  UNL1        0.0614
     16 C           7.7337   31.9058    0.9925 C.ar    1  UNL1        0.1128
     17 N           7.4501   30.6602    1.3145 N.ar    1  UNL1       -0.1440
     18 N           6.7346   30.5812    2.4915 N.ar    1  UNL1       -0.1245
     19 C           6.5773   31.7597    3.0450 C.ar    1  UNL1        0.2006
     20 S           7.1532   33.0715    2.1172 S.2     1  UNL1       -0.0336
@<TRIPOS>BOND
     1    15    16    1
     2    16    17   ar
     3    16    20   ar
     4    17    18   ar
     5    18    19   ar
     6    19    13    1
     7    19    20   ar
     8    13     1    1
     9    13    14    1
    10     1     2    2
    11     1     3    2
    12     1     4    1
    13     4     5   ar
    14     4    10   ar
    15     5     6   ar
    16     6     7   ar
    17     7     8    1
    18     7     9   ar
    19     8    11    1
    20     8    12    1
    21     9    10   ar
#	Name:			CHEMBL119385
#	Creating user name:	trannguyen
#	Creation time:		Tue Feb  8 18:26:14 2022


#	Modifying user name:	trannguyen
#	Modification time:	Tue Feb  8 18:26:14 2022

@<TRIPOS>MOLECULE
CHEMBL119385
 28 31 0 0 0
SMALL
GASTEIGER

@<TRIPOS>ATOM
      1 O          10.1747   33.9138   10.3033 O.2     1  UNL1       -0.2651
      2 C           8.9822   33.6498   10.1909 C.ar    1  UNL1        0.2821
      3 N           8.1164   33.7027   11.2590 N.ar    1  UNL1       -0.1855
      4 C           6.8770   33.4174   11.0481 C.ar    1  UNL1        0.2029
      5 N           6.2869   33.0506    9.8561 N.ar    1  UNL1       -0.2088
      6 N           4.9236   32.8230    9.8175 N.ar    1  UNL1       -0.1571
      7 C           4.4256   32.4970    8.6686 C.ar    1  UNL1        0.1309
      8 C           5.1744   32.3350    7.4089 C.ar    1  UNL1        0.0291
      9 C           6.4891   32.5731    7.4778 C.ar    1  UNL1        0.0215
     10 C           7.1203   32.9698    8.7326 C.ar    1  UNL1        0.0893
     11 C           8.4393   33.2530    8.8388 C.ar    1  UNL1        0.0772
     12 C           9.3862   33.2112    7.7014 C.ar    1  UNL1        0.0273
     13 C          10.0184   32.0093    7.3333 C.ar    1  UNL1        0.0587
     14 CL          9.7390   30.5310    8.1901 Cl      1  UNL1       -0.0822
     15 C          10.9181   31.9716    6.2627 C.ar    1  UNL1        0.0114
     16 C          11.1967   33.1299    5.5405 C.ar    1  UNL1        0.0017
     17 C          10.5730   34.3270    5.8858 C.ar    1  UNL1        0.0114
     18 C           9.6717   34.3687    6.9551 C.ar    1  UNL1        0.0587
     19 CL          8.9501   35.8969    7.3298 Cl      1  UNL1       -0.0822
     20 S           2.7008   32.2348    8.5080 S.3     1  UNL1       -0.0641
     21 C           2.5529   30.6259    9.2597 C.ar    1  UNL1        0.0585
     22 C           3.7092   29.9058    9.5829 C.ar    1  UNL1        0.0111
     23 C           3.6048   28.6447   10.1755 C.ar    1  UNL1        0.0303
     24 C           2.3481   28.1132   10.4498 C.ar    1  UNL1        0.1424
     25 F           2.2549   26.9041   11.0173 F       1  UNL1       -0.2041
     26 C           1.1909   28.8166   10.1482 C.ar    1  UNL1        0.0598
     27 C           1.3015   30.0695    9.5563 C.ar    1  UNL1        0.1483
     28 F           0.1763   30.7456    9.2762 F       1  UNL1       -0.2036
@<TRIPOS>BOND
     1     1     2    2
     2     2     3   ar
     3     2    11   ar
     4     3     4   ar
     5     4     5   ar
     6     5     6   ar
     7     5    10   ar
     8     6     7   ar
     9     7    20    1
    10     7     8   ar
    11    20    21    1
    12    21    22   ar
    13    21    27   ar
    14    22    23   ar
    15    23    24   ar
    16    24    25    1
    17    24    26   ar
    18    26    27   ar
    19    27    28    1
    20     8     9   ar
    21     9    10   ar
    22    10    11   ar
    23    11    12    1
    24    12    13   ar
    25    12    18   ar
    26    13    14    1
    27    13    15   ar
    28    15    16   ar
    29    16    17   ar
    30    17    18   ar
    31    18    19    1
#	Name:			CHEMBL119443
#	Creating user name:	trannguyen
#	Creation time:		Tue Feb  8 18:26:14 2022


#	Modifying user name:	trannguyen
#	Modification time:	Tue Feb  8 18:26:14 2022

@<TRIPOS>MOLECULE
CHEMBL119443
 27 30 0 0 0
SMALL
GASTEIGER

@<TRIPOS>ATOM
      1 C           2.4793   32.1954    8.4401 C.3     0  UNK0        0.1140
      2 C           3.9634   32.2936    8.1818 C.2     0  UNK0       -0.0190
      3 C           4.3638   32.7043    6.9598 C.2     0  UNK0       -0.0112
      4 C           5.7648   32.6274    6.5035 C.ar    0  UNK0       -0.0019
      5 C           6.8888   32.1972    7.2220 C.ar    0  UNK0       -0.0002
      6 C           8.1425   32.0932    6.6032 C.ar    0  UNK0        0.0015
      7 C           8.3227   32.4005    5.2473 C.ar    0  UNK0        0.0170
      8 C           7.1980   32.8387    4.5461 C.ar    0  UNK0        0.0563
      9 N           7.0229   33.2110    3.2310 N.ar    0  UNK0       -0.3523
     10 H           7.7525   33.2089    2.5321 H       0  UNK0        0.1660
     11 C           5.7215   33.6037    3.0151 C.ar    0  UNK0        0.0681
     12 C           5.0457   33.4690    4.2061 C.ar    0  UNK0       -0.0021
     13 C           5.9595   32.9654    5.1567 C.ar    0  UNK0        0.0128
     14 C           3.6553   33.7989    4.6025 C.3     0  UNK0        0.0484
     15 C           3.2485   33.1538    5.9765 C.3     0  UNK0        0.0843
     16 N           2.1808   32.1179    5.8611 N.3     0  UNK0       -0.2681
     17 C           2.5782   31.0056    4.9884 C.3     0  UNK0        0.0899
     18 C           1.7674   31.5896    7.1931 C.3     0  UNK0        0.0859
     19 N           2.0543   29.9666    9.3488 N.am    1  ALA1       -0.3032
     20 C           2.2263   31.3079    9.6575 C.2     0  UNK0        0.2275
     21 O           2.1538   31.7353   10.7991 O.2     0  UNK0       -0.2747
     22 H           1.9365   29.7036    8.3802 H       1  ALA1        0.1495
     23 CB          0.2654   28.5990   10.3337 C.3     1  ALA1        0.0239
     24 CA          1.7494   28.9755   10.3866 C.3     1  ALA1        0.1008
     25 C           2.6297   27.7166   10.2442 C.3     1  ALA1        0.1565
     26 O           2.1846   26.6842   11.1245 O.3     1  ALA1       -0.3802
     27 H           1.2788   26.4674   10.8406 H       1  ALA1        0.2105
@<TRIPOS>BOND
     1    23    24    1
     2    24    25    1
     3    24    19    1
     4    25    26    1
     5    26    27    1
     6    19    20   am
     7    19    22    1
     8    20    21    2
     9    20     1    1
    10     1     2    1
    11     1    18    1
    12     2     3    2
    13     3     4    1
    14     3    15    1
    15     4     5   ar
    16     4    13   ar
    17     5     6   ar
    18     6     7   ar
    19     7     8   ar
    20     8     9   ar
    21     8    13   ar
    22     9    11   ar
    23     9    10    1
    24    11    12   ar
    25    12    13   ar
    26    12    14    1
    27    14    15    1
    28    15    16    1
    29    16    18    1
    30    16    17    1
#	Name:			CHEMBL1194
#	Creating user name:	trannguyen
#	Creation time:		Tue Feb  8 18:26:14 2022


#	Modifying user name:	trannguyen
#	Modification time:	Tue Feb  8 18:26:14 2022

@<TRIPOS>MOLECULE
CHEMBL1194
 18 18 0 0 0
SMALL
GASTEIGER

@<TRIPOS>ATOM
      1 C           1.5817   31.4305    8.2755 C.2     1  UNL1        0.2404
      2 O           1.0614   30.4516    7.7199 O.2     1  UNL1       -0.2733
      3 N           2.3673   32.3973    7.6648 N.am    1  UNL1       -0.2831
      4 H           2.8620   33.0053    8.3006 H       1  UNL1        0.1549
      5 C           2.6722   32.4618    6.2912 C.ar    1  UNL1        0.0463
      6 C           1.6498   32.5238    5.3389 C.ar    1  UNL1        0.0144
      7 C           1.9275   32.6027    3.9800 C.ar    1  UNL1        0.0013
      8 C           3.2456   32.6097    3.5498 C.ar    1  UNL1       -0.0002
      9 C           4.2827   32.5548    4.4832 C.ar    1  UNL1       -0.0030
     10 C           4.0165   32.4874    5.8643 C.ar    1  UNL1       -0.0084
     11 C           5.1786   32.4811    6.8200 C.3     1  UNL1        0.0323
     12 C           1.4112   31.6150    9.7800 C.3     1  UNL1        0.1319
     13 C           1.4523   33.1065   10.0892 C.3     1  UNL1        0.0270
     14 N           2.4588   30.8763   10.5237 N.3     1  UNL1       -0.2913
     15 H           2.5468   31.3054   11.4462 H       1  UNL1        0.1236
     16 C           2.0883   29.4596   10.7136 C.3     1  UNL1        0.0689
     17 C           4.5422   29.2794   10.1417 C.3     1  UNL1        0.0015
     18 C           3.2077   28.5467   10.2058 C.3     1  UNL1        0.0171
@<TRIPOS>BOND
     1    17    18    1
     2    18    16    1
     3    16    14    1
     4    14    12    1
     5    14    15    1
     6    12    13    1
     7    12     1    1
     8     1     2    2
     9     1     3   am
    10     3     5    1
    11     3     4    1
    12     5     6   ar
    13     5    10   ar
    14     6     7   ar
    15     7     8   ar
    16     8     9   ar
    17     9    10   ar
    18    10    11    1
#	Name:			CHEMBL1196
#	Creating user name:	trannguyen
#	Creation time:		Tue Feb  8 18:26:14 2022


#	Modifying user name:	trannguyen
#	Modification time:	Tue Feb  8 18:26:14 2022

@<TRIPOS>MOLECULE
CHEMBL1196
 23 23 0 0 0
SMALL
GASTEIGER

@<TRIPOS>ATOM
      1 C           2.5950   30.5928    9.3830 C.ar    1  UNL1        0.1513
      2 C           1.3431   30.5540    8.7572 C.ar    1  UNL1        0.0384
      3 C           1.1725   31.1134    7.4884 C.ar    1  UNL1        0.0096
      4 C           2.2575   31.7383    6.8472 C.ar    1  UNL1        0.0771
      5 C           3.5109   31.7392    7.4590 C.ar    1  UNL1        0.0236
      6 C           3.6849   31.2191    8.7433 C.ar    1  UNL1        0.0762
      7 N           4.9893   31.1177    9.2646 N.pl3   1  UNL1       -0.3546
      8 H           5.6115   31.8642    8.9740 H       1  UNL1        0.1424
      9 H           4.9720   30.9807   10.2737 H       1  UNL1        0.1424
     10 C           2.0356   32.3054    5.5154 C.2     1  UNL1        0.3413
     11 O           0.9855   32.1947    4.8873 O.2     1  UNL1       -0.2449
     12 O           3.1571   32.9490    5.1114 O.3     1  UNL1       -0.4439
     13 C           3.3778   32.9478    3.6929 C.3     1  UNL1        0.2260
     14 C           4.8430   33.3279    3.4263 C.3     1  UNL1        0.1202
     15 N           5.7634   32.2244    3.1136 N.3     1  UNL1       -0.2696
     16 C           6.8733   32.6805    2.2498 C.3     1  UNL1        0.0722
     17 C           7.7030   31.5697    1.6114 C.3     1  UNL1        0.0188
     18 C           6.2985   31.5713    4.3284 C.3     1  UNL1        0.0722
     19 C           6.6720   32.4943    5.4903 C.3     1  UNL1        0.0188
     20 O           2.8372   30.1118   10.6498 O.3     1  UNL1       -0.4742
     21 C           2.2039   28.8733   10.9746 C.3     1  UNL1        0.2055
     22 C           4.3044   27.7580   10.1613 C.3     1  UNL1        0.0040
     23 C           2.7872   27.7824   10.0830 C.3     1  UNL1        0.0473
@<TRIPOS>BOND
     1    22    23    1
     2    23    21    1
     3    21    20    1
     4    20     1    1
     5     1     2   ar
     6     1     6   ar
     7     2     3   ar
     8     3     4   ar
     9     4    10    1
    10     4     5   ar
    11    10    11    2
    12    10    12    1
    13    12    13    1
    14    13    14    1
    15    14    15    1
    16    15    16    1
    17    15    18    1
    18    16    17    1
    19    18    19    1
    20     5     6   ar
    21     6     7    1
    22     7     8    1
    23     7     9    1
#	Name:			CHEMBL1198
#	Creating user name:	trannguyen
#	Creation time:		Tue Feb  8 18:26:14 2022


#	Modifying user name:	trannguyen
#	Modification time:	Tue Feb  8 18:26:14 2022

@<TRIPOS>MOLECULE
CHEMBL1198
 21 22 0 0 0
SMALL
GASTEIGER

@<TRIPOS>ATOM
      1 C           2.2475   31.7376    6.5650 C.ar    1  UNL1        0.1388
      2 C           3.4302   32.2978    7.0366 C.ar    1  UNL1        0.0400
      3 C           4.5241   32.4842    6.1847 C.ar    1  UNL1        0.0400
      4 C           4.4561   32.0863    4.8535 C.ar    1  UNL1        0.1388
      5 C           3.2855   31.4812    4.3854 C.ar    1  UNL1        0.0400
      6 C           2.1856   31.2986    5.2377 C.ar    1  UNL1        0.0400
      7 O           1.2332   31.6315    7.4797 O.3     1  UNL1       -0.4755
      8 C           1.6533   31.4313    8.8314 C.3     1  UNL1        0.2054
      9 C           1.3666   29.9842    9.2346 C.3     1  UNL1        0.0473
     10 C           3.8527   29.7589    9.6659 C.3     1  UNL1        0.0001
     11 C           2.4518   29.4472   10.1684 C.3     1  UNL1        0.0038
     12 O           5.4483   32.2391    3.9305 O.3     1  UNL1       -0.4754
     13 C           6.7660   31.7759    4.2660 C.3     1  UNL1        0.2068
     14 C           7.7351   32.5503    3.3758 C.3     1  UNL1        0.0646
     15 C           7.2653   32.7864    1.9314 C.3     1  UNL1        0.0761
     16 N           8.2764   33.3625    1.0345 N.3     1  UNL1       -0.2683
     17 C           8.7157   32.4532   -0.0453 C.3     1  UNL1        0.1046
     18 C           7.7086   32.2834   -1.1949 C.3     1  UNL1        0.1595
     19 O           7.3501   33.5439   -1.7706 O.3     1  UNL1       -0.3508
     20 C           6.8411   34.4462   -0.7823 C.3     1  UNL1        0.1595
     21 C           7.8163   34.6214    0.3989 C.3     1  UNL1        0.1046
@<TRIPOS>BOND
     1    10    11    1
     2    11     9    1
     3     9     8    1
     4     8     7    1
     5     7     1    1
     6     1     2   ar
     7     1     6   ar
     8     2     3   ar
     9     3     4   ar
    10     4    12    1
    11     4     5   ar
    12    12    13    1
    13    13    14    1
    14    14    15    1
    15    15    16    1
    16    16    17    1
    17    16    21    1
    18    17    18    1
    19    18    19    1
    20    19    20    1
    21    20    21    1
    22     5     6   ar
#	Name:			CHEMBL1200391
#	Creating user name:	trannguyen
#	Creation time:		Tue Feb  8 18:26:14 2022


#	Modifying user name:	trannguyen
#	Modification time:	Tue Feb  8 18:26:14 2022

@<TRIPOS>MOLECULE
CHEMBL1200391
 13 12 0 0 0
SMALL
GASTEIGER

@<TRIPOS>ATOM
      1 N           1.8731   30.7754   11.2157 N.3     1  UNL1       -0.3174
      2 C           1.8439   29.5654   10.3362 C.3     1  UNL1        0.1209
      3 H           2.5942   31.3978   10.8327 H       1  UNL1        0.1190
      4 H           2.2689   30.4674   12.1113 H       1  UNL1        0.1190
      5 C           0.9643   29.9064    9.1130 C.3     1  UNL1        0.1561
      6 O           0.0625   30.9664    9.4307 O.3     1  UNL1       -0.3804
      7 H           0.6185   31.6129    9.9162 H       1  UNL1        0.2105
      8 C           3.2854   29.2115    9.8913 C.3     1  UNL1        0.1561
      9 O           4.2366   29.5353   10.9096 O.3     1  UNL1       -0.3804
     10 H           4.4175   30.4915   10.8592 H       1  UNL1        0.2105
     11 C           1.2244   28.3825   11.1202 C.3     1  UNL1        0.1561
     12 O           2.0980   27.9689   12.1742 O.3     1  UNL1       -0.3804
     13 H           1.6334   27.2669   12.6632 H       1  UNL1        0.2105
@<TRIPOS>BOND
     1     1     2    1
     2     1     3    1
     3     1     4    1
     4     2     5    1
     5     2     8    1
     6     2    11    1
     7     5     6    1
     8     6     7    1
     9     8     9    1
    10     9    10    1
    11    11    12    1
    12    12    13    1
#	Name:			CHEMBL1200396
#	Creating user name:	trannguyen
#	Creation time:		Tue Feb  8 18:26:14 2022


#	Modifying user name:	trannguyen
#	Modification time:	Tue Feb  8 18:26:14 2022

@<TRIPOS>MOLECULE
CHEMBL1200396
 22 23 0 0 0
SMALL
GASTEIGER

@<TRIPOS>ATOM
      1 C           5.3448   33.5053    8.5968 C.2     1  UNL1        0.2406
      2 O           5.3032   34.5399    9.0611 O.2     1  UNL1       -0.2733
      3 N           4.6059   33.3169    7.4266 N.am    1  UNL1       -0.2833
      4 H           4.0756   34.0378    7.0644 H       1  UNL1        0.1549
      5 C           4.0873   32.3386    6.7427 C.ar    1  UNL1        0.0423
      6 C           4.6724   32.1692    5.4012 C.ar    1  UNL1       -0.0087
      7 C           6.0224   33.8028    4.6811 C.3     1  UNL1        0.0323
      8 C           4.0417   31.3321    3.9345 C.ar    1  UNL1       -0.0031
      9 C           3.1106   31.1614    3.8306 C.ar    1  UNL1       -0.0006
     10 C           2.5738   31.0342    5.0345 C.ar    1  UNL1       -0.0031
     11 C           2.9481   31.6923    6.3409 C.ar    1  UNL1       -0.0087
     12 C           2.1403   31.5189    7.4550 C.3     1  UNL1        0.0323
     13 N           7.4700   35.2362    8.9824 N.3     1  UNL1       -0.2666
     14 C           8.6967   35.1922    7.1018 C.3     1  UNL1        0.0725
     15 C           9.1584   32.1377    6.6680 C.3     1  UNL1        0.0174
     16 C           7.5302   31.3812    7.1717 C.3     1  UNL1        0.0033
     17 C           7.0029   31.2875    8.8710 C.3     1  UNL1        0.0254
     18 C           6.1563   33.0147    9.4924 C.3     1  UNL1        0.1351
     19 C           9.5435   34.5645    9.9618 C.3     1  UNL1        0.0725
     20 C           9.3296   33.1829   10.3066 C.3     1  UNL1        0.0173
     21 C          11.1912   31.6177    9.8084 C.3     1  UNL1        0.0000
     22 C          10.6283   34.1733   10.1563 C.3     1  UNL1        0.0014
@<TRIPOS>BOND
     1    21    22    1
     2    22    20    1
     3    20    19    1
     4    19    13    1
     5    13    14    1
     6    13    18    1
     7    14    15    1
     8    15    16    1
     9    16    17    1
    10    17    18    1
    11    18     1    1
    12     1     2    2
    13     1     3   am
    14     3     5    1
    15     3     4    1
    16     5     6   ar
    17     5    11   ar
    18     6     7    1
    19     6     8   ar
    20     8     9   ar
    21     9    10   ar
    22    10    11   ar
    23    11    12    1
#	Name:			CHEMBL1200406
#	Creating user name:	trannguyen
#	Creation time:		Tue Feb  8 18:26:14 2022


#	Modifying user name:	trannguyen
#	Modification time:	Tue Feb  8 18:26:14 2022

@<TRIPOS>MOLECULE
CHEMBL1200406
 19 20 0 0 0
SMALL
GASTEIGER

@<TRIPOS>ATOM
      1 C           2.3219   31.7054    8.6212 C.3     1  UNL1        0.1598
      2 C           2.8466   31.7773    7.1812 C.ar    1  UNL1        0.0087
      3 C           2.1165   31.2346    6.1115 C.ar    1  UNL1       -0.0016
      4 C           2.6445   31.2060    4.8157 C.ar    1  UNL1       -0.0002
      5 C           3.8892   31.7716    4.5516 C.ar    1  UNL1       -0.0000
      6 C           4.6007   32.3786    5.5831 C.ar    1  UNL1       -0.0002
      7 C           4.0896   32.3735    6.8891 C.ar    1  UNL1       -0.0016
      8 C           2.6318   30.3599    9.3019 C.ar    1  UNL1        0.0087
      9 C           3.9447   30.0009    9.6666 C.ar    1  UNL1       -0.0016
     10 C           4.2202   28.7565   10.2563 C.ar    1  UNL1       -0.0002
     11 C           3.1928   27.8444   10.4843 C.ar    1  UNL1       -0.0000
     12 C           1.8872   28.1843   10.1434 C.ar    1  UNL1       -0.0002
     13 C           1.6093   29.4326    9.5726 C.ar    1  UNL1       -0.0016
     14 O           2.8434   32.7689    9.4660 O.3     1  UNL1       -0.3459
     15 C           1.8770   33.4496   10.2862 C.3     1  UNL1        0.1602
     16 C           2.0762   34.9879   10.1663 C.3     1  UNL1        0.1047
     17 C           0.8598   37.0634    9.8615 C.3     1  UNL1        0.0897
     18 N           0.9664   35.8357   10.6628 N.3     1  UNL1       -0.2682
     19 C          -0.3229   35.1430   10.6344 C.3     1  UNL1        0.0897
@<TRIPOS>BOND
     1    17    18    1
     2    18    19    1
     3    18    16    1
     4    16    15    1
     5    15    14    1
     6    14     1    1
     7     1     2    1
     8     1     8    1
     9     2     3   ar
    10     2     7   ar
    11     3     4   ar
    12     4     5   ar
    13     5     6   ar
    14     6     7   ar
    15     8     9   ar
    16     8    13   ar
    17     9    10   ar
    18    10    11   ar
    19    11    12   ar
    20    12    13   ar
#	Name:			CHEMBL1200545
#	Creating user name:	trannguyen
#	Creation time:		Tue Feb  8 18:26:14 2022


#	Modifying user name:	trannguyen
#	Modification time:	Tue Feb  8 18:26:14 2022

@<TRIPOS>MOLECULE
CHEMBL1200545
 36 39 0 0 0
SMALL
GASTEIGER

@<TRIPOS>ATOM
      1 C           2.9872   31.8582    8.9333 C.3     1  UNL1        0.1896
      2 C           2.9493   32.7688    7.6721 C.3     1  UNL1        0.0438
      3 C           3.1537   34.2742    7.8128 C.3     1  UNL1        0.0040
      4 C           4.0681   32.1761    6.8127 C.3     1  UNL1        0.0041
      5 C           5.2149   31.8243    7.7732 C.3     1  UNL1        0.0066
      6 C           6.4173   32.8200    7.6661 C.3     1  UNL1        0.0362
      7 C           7.0340   32.7192    6.2531 C.3     1  UNL1        0.0423
      8 C           8.3490   33.4608    6.1120 C.3     1  UNL1        0.1799
      9 F           8.8049   33.2620    4.8426 F       1  UNL1       -0.2328
     10 C           9.3107   32.9366    7.1359 C.2     1  UNL1       -0.0034
     11 C          10.4346   32.2965    6.7685 C.2     1  UNL1        0.0365
     12 C          11.3519   31.7106    7.7632 C.2     1  UNL1        0.1949
     13 O          12.3823   31.1432    7.4242 O.2     1  UNL1       -0.2866
     14 C          10.9709   31.8310    9.1840 C.2     1  UNL1        0.0378
     15 C           9.8625   32.4885    9.5522 C.2     1  UNL1       -0.0170
     16 C           8.8743   33.1532    8.5933 C.3     1  UNL1        0.0662
     17 C           8.9475   34.6774    8.8494 C.3     1  UNL1        0.0113
     18 C           7.4353   32.5091    8.7961 C.3     1  UNL1        0.1646
     19 F           7.6405   31.1373    8.6996 F       1  UNL1       -0.2369
     20 C           6.7569   32.7363   10.1870 C.3     1  UNL1        0.1409
     21 O           7.1337   33.9682   10.8017 O.3     1  UNL1       -0.3817
     22 C           5.2090   32.7103   10.1641 C.3     1  UNL1        0.0358
     23 C           4.5725   31.6780    9.2032 C.3     1  UNL1        0.0427
     24 C           4.8791   30.2709    9.7912 C.3     1  UNL1        0.0040
     25 H           6.6943   34.0131   11.6715 H       1  UNL1        0.2104
     26 C           2.1978   32.3230   10.2053 C.2     1  UNL1        0.2303
     27 O           2.0953   31.5851   11.1942 O.2     1  UNL1       -0.2885
     28 C           1.4418   33.6635   10.1947 C.3     1  UNL1        0.2756
     29 O           0.0106   33.6346   10.2226 O.3     1  UNL1       -0.4401
     30 C           0.2304   35.9481   10.5400 C.3     1  UNL1        0.1212
     31 C          -0.5806   34.7120   10.8130 C.2     1  UNL1        0.3180
     32 O          -1.5364   34.6771   11.5567 O.2     1  UNL1       -0.2501
     33 O           2.5231   30.5207    8.4941 O.3     1  UNL1       -0.4485
     34 C           1.2591   30.0996    8.7596 C.2     1  UNL1        0.3177
     35 C           1.2561   28.8337    9.5674 C.3     1  UNL1        0.1212
     36 O           0.2445   30.6342    8.3288 O.2     1  UNL1       -0.2501
@<TRIPOS>BOND
     1    30    31    1
     2    31    32    2
     3    31    29    1
     4    29    28    1
     5    28    26    1
     6    26    27    2
     7     1     2    1
     8     1    23    1
     9     1    33    1
    10     1    26    1
    11    33    34    1
    12    34    35    1
    13    34    36    2
    14     2     4    1
    15     2     3    1
    16     4     5    1
    17     5     6    1
    18     5    23    1
    19     6     7    1
    20     6    18    1
    21     7     8    1
    22     8    10    1
    23     8     9    1
    24    10    11    2
    25    10    16    1
    26    11    12    1
    27    12    14    1
    28    12    13    2
    29    14    15    2
    30    15    16    1
    31    16    18    1
    32    16    17    1
    33    18    20    1
    34    18    19    1
    35    20    22    1
    36    20    21    1
    37    21    25    1
    38    22    23    1
    39    23    24    1
#	Name:			CHEMBL1200558
#	Creating user name:	trannguyen
#	Creation time:		Tue Feb  8 18:26:14 2022


#	Modifying user name:	trannguyen
#	Modification time:	Tue Feb  8 18:26:14 2022

@<TRIPOS>MOLECULE
CHEMBL1200558
 120 123 0 0 0
SMALL
GASTEIGER

@<TRIPOS>ATOM
      1 C           7.2005   34.2387    1.9850 C.3     1  UNL1        0.1486
      2 C           7.2199   32.9130    1.1344 C.3     1  UNL1        0.0290
      3 C           7.6706   33.0300   -0.3879 C.3     1  UNL1        0.0040
      4 C           8.9336   32.3032   -1.0353 C.3     1  UNL1        0.0213
      5 C          10.3323   32.8567   -1.6847 C.3     1  UNL1        0.0894
      6 N          11.4295   33.5683   -0.8905 N.am    1  UNL1       -0.3030
      7 C          12.7892   33.1254   -0.7601 C.2     1  UNL1        0.2408
      8 O          13.1021   31.9564   -0.9812 O.2     1  UNL1       -0.2733
      9 C          13.9528   34.2298   -0.2502 C.3     1  UNL1        0.1577
     10 N          14.5106   34.2120    1.2247 N.am    1  UNL1       -0.2966
     11 C          14.9816   35.3594    1.8977 C.2     1  UNL1        0.2412
     12 O          14.9786   36.4400    1.2923 O.2     1  UNL1       -0.2733
     13 C          15.5741   35.3153    3.4489 C.3     1  UNL1        0.1598
     14 N          14.6774   35.0090    4.6388 N.am    1  UNL1       -0.2965
     15 C          15.2137   34.3012    5.7310 C.2     1  UNL1        0.2410
     16 O          15.8692   33.2892    5.4813 O.2     1  UNL1       -0.2733
     17 C          15.0459   34.8410    7.2679 C.3     1  UNL1        0.1545
     18 N          13.6129   34.7389    7.8755 N.am    1  UNL1       -0.2967
     19 C          13.1711   35.2708    9.1080 C.2     1  UNL1        0.2410
     20 O          13.9901   35.8342    9.8432 O.2     1  UNL1       -0.2733
     21 C          11.5299   35.1052    9.6162 C.3     1  UNL1        0.1530
     22 N          10.6909   34.0416    8.9797 N.am    1  UNL1       -0.2967
     23 C           9.3900   34.1279    8.5148 C.2     1  UNL1        0.2406
     24 O           9.0109   35.1301    7.9029 O.2     1  UNL1       -0.2733
     25 C           8.4313   32.8261    8.6907 C.3     1  UNL1        0.1485
     26 N           7.1868   33.0634    7.8659 N.am    1  UNL1       -0.2970
     27 C           6.8374   32.3409    6.7312 C.2     1  UNL1        0.2406
     28 O           7.3746   31.2682    6.4571 O.2     1  UNL1       -0.2733
     29 C           5.7581   32.9872    5.7566 C.3     1  UNL1        0.1486
     30 N           6.3464   33.0438    4.3116 N.am    1  UNL1       -0.2970
     31 C           6.4035   34.1675    3.4770 C.2     1  UNL1        0.2406
     32 O           5.8176   35.1956    3.8421 O.2     1  UNL1       -0.2733
     33 H          11.3776   34.5692   -1.0278 H       1  UNL1        0.1495
     34 H          14.7419   33.3027    1.6165 H       1  UNL1        0.1499
     35 H          14.0081   35.7413    4.8331 H       1  UNL1        0.1499
     36 H          12.8845   34.6880    7.1777 H       1  UNL1        0.1499
     37 H          11.0673   33.1082    9.0814 H       1  UNL1        0.1499
     38 H           6.7828   33.9873    7.9705 H       1  UNL1        0.1499
     39 H           6.7445   32.1662    4.0053 H       1  UNL1        0.1499
     40 C           8.4494   36.2223    0.8373 C.2     1  UNL1        0.2406
     41 O           7.4290   36.2438    0.1441 O.2     1  UNL1       -0.2733
     42 N           8.4729   35.1512    1.7051 N.am    1  UNL1       -0.2970
     43 H           9.3343   34.9915    2.1924 H       1  UNL1        0.1499
     44 C           9.7097   37.2640    0.4833 C.3     1  UNL1        0.1485
     45 C          10.5645   36.5451   -2.0575 C.2     1  UNL1        0.2406
     46 O          11.6278   36.2970   -2.6363 O.2     1  UNL1       -0.2733
     47 N          10.6851   36.9079   -0.7045 N.am    1  UNL1       -0.2970
     48 H          11.6797   36.8181   -0.4675 H       1  UNL1        0.1499
     49 C           9.0884   36.4434   -2.7666 C.3     1  UNL1        0.1491
     50 C           7.9809   34.4096   -4.6981 C.2     1  UNL1        0.2406
     51 O           7.3431   33.3357   -4.5373 O.2     1  UNL1       -0.2733
     52 N           8.4375   35.0263   -3.4688 N.am    1  UNL1       -0.2970
     53 H           8.0150   34.5188   -2.6809 H       1  UNL1        0.1499
     54 C           8.2626   34.8247   -6.3972 C.3     1  UNL1        0.1486
     55 C           6.7861   36.2969   -8.3972 C.2     1  UNL1        0.2460
     56 O           6.7965   35.3774   -9.2203 O.2     1  UNL1       -0.2730
     57 N           7.3509   36.1270   -7.0772 N.am    1  UNL1       -0.2967
     58 H           7.2405   36.9467   -6.4869 H       1  UNL1        0.1499
     59 C           5.6143   39.8234   -7.8710 C.2     1  UNL1        0.0934
     60 N           5.3196   38.5568   -7.9663 N.2     1  UNL1       -0.2590
     61 C           6.3266   37.8064   -8.8770 C.3     1  UNL1        0.1902
     62 C           7.3799   38.7728   -9.3908 C.3     1  UNL1        0.0970
     63 S           7.2612   40.1802   -8.3111 S.3     1  UNL1       -0.0958
     64 C           4.6343   40.9844   -7.3788 C.3     1  UNL1        0.0972
     65 N           3.3256   40.7798   -8.0331 N.3     1  UNL1       -0.3172
     66 H           2.9710   39.8803   -7.7209 H       1  UNL1        0.1192
     67 H           2.6572   41.4855   -7.7256 H       1  UNL1        0.1192
     68 C           4.3577   41.2838   -5.8503 C.3     1  UNL1        0.0205
     69 C           5.4584   40.8140   -4.8824 C.3     1  UNL1        0.0018
     70 C           3.3564   42.9297   -4.1513 C.3     1  UNL1        0.0001
     71 C           3.9569   42.7432   -5.5295 C.3     1  UNL1        0.0017
     72 C           9.7374   34.9773   -7.0633 C.3     1  UNL1        0.0290
     73 C          11.1792   34.4975   -6.5396 C.3     1  UNL1        0.0021
     74 C          11.7896   35.7538   -6.2969 C.3     1  UNL1        0.0001
     75 C          11.6563   33.8478   -5.2435 C.3     1  UNL1        0.0001
     76 C           8.1364   37.8059   -2.9417 C.3     1  UNL1        0.0406
     77 C           8.8790   39.0443   -3.5964 C.3     1  UNL1        0.1116
     78 C           9.6658   38.6923   -4.8522 C.2     1  UNL1        0.3139
     79 O           9.1793   38.2570   -5.8788 O.2     1  UNL1       -0.2503
     80 O          11.0016   38.7391   -4.6835 O.3     1  UNL1       -0.4802
     81 H          11.4043   38.4975   -5.5452 H       1  UNL1        0.2951
     82 C           9.7148   38.8560    0.7525 C.3     1  UNL1        0.0269
     83 C          11.0956   39.4480    0.3568 C.3     1  UNL1        0.0022
     84 C           8.6667   39.8127    0.1412 C.3     1  UNL1        0.0021
     85 C           9.1843   41.1861   -0.2090 C.3     1  UNL1        0.0001
     86 C           8.0693   32.3231   10.1583 C.3     1  UNL1        0.0269
     87 C           8.3938   33.3331   11.2872 C.3     1  UNL1        0.0022
     88 C           6.6177   31.9026   10.3997 C.3     1  UNL1        0.0021
     89 C           6.2292   30.4697   10.1323 C.3     1  UNL1        0.0001
     90 C          16.1358   36.7415    3.7538 C.3     1  UNL1        0.1382
     91 C          15.2125   37.6734    4.5341 C.2     1  UNL1        0.3160
     92 O          14.2188   38.1247    4.1568 O.2     1  UNL1       -0.2502
     93 O          15.6791   37.9318    5.7861 O.3     1  UNL1       -0.4801
     94 H          15.0156   38.5739    6.1185 H       1  UNL1        0.2951
     95 C          15.1427   34.2148   -1.2751 C.3     1  UNL1        0.1137
     96 C          16.3191   33.3322   -0.8805 C.2     1  UNL1        0.2216
     97 N          16.3127   32.0494   -1.3557 N.am    1  UNL1       -0.3287
     98 O          17.2921   33.7393   -0.2538 O.2     1  UNL1       -0.2753
     99 H          15.9897   31.9001   -2.3051 H       1  UNL1        0.1449
    100 H          17.1820   31.5623   -1.1521 H       1  UNL1        0.1449
    101 C          16.3234   34.3234    8.1446 C.3     1  UNL1        0.0741
    102 C          16.2998   32.9748    8.8638 C.ar    1  UNL1        0.0563
    103 C          16.5493   32.6014   10.1704 C.ar    1  UNL1        0.1131
    104 N          16.3034   31.2679   10.3915 N.ar    1  UNL1       -0.2229
    105 C          15.8599   30.8057    9.2499 C.ar    1  UNL1        0.1748
    106 N          15.9120   31.7706    8.2754 N.ar    1  UNL1       -0.3381
    107 H          15.6538   31.6006    7.3129 H       1  UNL1        0.1672
    108 C          10.8176   36.4568   10.1832 C.3     1  UNL1        0.0553
    109 C          10.7668   37.9059    9.5908 C.ar    1  UNL1       -0.0200
    110 C          10.7342   38.2330    8.2253 C.ar    1  UNL1       -0.0042
    111 C          10.5495   39.5732    7.7661 C.ar    1  UNL1       -0.0003
    112 C          10.2468   40.6030    8.6486 C.ar    1  UNL1       -0.0000
    113 C          10.2214   40.3046   10.0009 C.ar    1  UNL1       -0.0003
    114 C          10.5375   39.0016   10.4565 C.ar    1  UNL1       -0.0042
    115 C           4.3871   32.2209    5.9037 C.3     1  UNL1        0.0304
    116 C           3.5295   31.9872    4.6380 C.3     1  UNL1        0.0190
    117 C           2.4384   33.0124    4.2959 C.3     1  UNL1        0.0652
    118 N           2.8780   34.3715    4.0688 N.3     1  UNL1       -0.3211
    119 H           3.5992   34.4175    3.3403 H       1  UNL1        0.1189
    120 H           3.3863   34.7544    4.8593 H       1  UNL1        0.1189
@<TRIPOS>BOND
     1    70    71    1
     2    68    69    1
     3    68    71    1
     4    64    65    1
     5    64    59    1
     6    64    68    1
     7    65    66    1
     8    65    67    1
     9    59    60    2
    10    59    63    1
    11    60    61    1
    12    61    55    1
    13    61    62    1
    14    55    56    2
    15    55    57   am
    16    57    54    1
    17    57    58    1
    18    54    72    1
    19    54    50    1
    20    72    73    1
    21    73    74    1
    22    73    75    1
    23    50    51    2
    24    50    52   am
    25    52    53    1
    26    49    76    1
    27    49    45    1
    28    49    52    1
    29    76    77    1
    30    77    78    1
    31    78    79    2
    32    78    80    1
    33    80    81    1
    34    45    46    2
    35    45    47   am
    36    47    48    1
    37    44    40    1
    38    44    82    1
    39    44    47    1
    40    40    41    2
    41    40    42   am
    42    42    43    1
    43     1     2    1
    44     1    31    1
    45     1    42    1
    46     2     3    1
    47     3     4    1
    48     4     5    1
    49     5     6    1
    50     6     7   am
    51     6    33    1
    52     7     8    2
    53     7     9    1
    54     9    10    1
    55     9    95    1
    56    95    96    1
    57    96    97   am
    58    96    98    2
    59    97    99    1
    60    97   100    1
    61    10    11   am
    62    10    34    1
    63    11    12    2
    64    11    13    1
    65    13    90    1
    66    13    14    1
    67    90    91    1
    68    91    92    2
    69    91    93    1
    70    93    94    1
    71    14    15   am
    72    14    35    1
    73    15    16    2
    74    15    17    1
    75    17    18    1
    76    17   101    1
    77   101   102    1
    78   102   103   ar
    79   102   106   ar
    80   103   104   ar
    81   104   105   ar
    82   105   106   ar
    83   106   107    1
    84    18    19   am
    85    18    36    1
    86    19    20    2
    87    19    21    1
    88    21   108    1
    89    21    22    1
    90   108   109    1
    91   109   110   ar
    92   109   114   ar
    93   110   111   ar
    94   111   112   ar
    95   112   113   ar
    96   113   114   ar
    97    22    23   am
    98    22    37    1
    99    23    24    2
   100    23    25    1
   101    25    26    1
   102    25    86    1
   103    86    87    1
   104    86    88    1
   105    88    89    1
   106    26    27   am
   107    26    38    1
   108    27    28    2
   109    27    29    1
   110    29   115    1
   111    29    30    1
   112   115   116    1
   113   116   117    1
   114   117   118    1
   115   118   119    1
   116   118   120    1
   117    30    31   am
   118    30    39    1
   119    31    32    2
   120    82    83    1
   121    82    84    1
   122    84    85    1
   123    62    63    1
#	Name:			CHEMBL1200559
#	Creating user name:	trannguyen
#	Creation time:		Tue Feb  8 18:26:14 2022


#	Modifying user name:	trannguyen
#	Modification time:	Tue Feb  8 18:26:14 2022

@<TRIPOS>MOLECULE
CHEMBL1200559
 8 7 0 0 0
SMALL
GASTEIGER

@<TRIPOS>ATOM
      1 C           1.1507   29.7679    9.1917 C.3     1  UNL1        0.0439
      2 C           1.9097   29.5252   10.4823 C.3     1  UNL1        0.2095
      3 O           1.8566   30.7084   11.2990 O.3     1  UNL1       -0.3744
      4 H           2.2620   31.4260   10.7761 H       1  UNL1        0.2110
      5 C           1.2882   28.3692   11.2682 C.2     1  UNL1        0.3409
      6 O           1.8681   27.6904   12.1007 O.2     1  UNL1       -0.2476
      7 O          -0.0129   28.1833   10.9247 O.3     1  UNL1       -0.4785
      8 H          -0.2205   28.8521   10.2270 H       1  UNL1        0.2951
@<TRIPOS>BOND
     1     1     2    1
     2     2     3    1
     3     2     5    1
     4     3     4    1
     5     5     6    2
     6     5     7    1
     7     7     8    1
#	Name:			CHEMBL1200585
#	Creating user name:	trannguyen
#	Creation time:		Tue Feb  8 18:26:14 2022


#	Modifying user name:	trannguyen
#	Modification time:	Tue Feb  8 18:26:14 2022

@<TRIPOS>MOLECULE
CHEMBL1200585
 26 29 0 0 0
SMALL
GASTEIGER

@<TRIPOS>ATOM
      1 C           1.0827   30.2668    9.6814 C.3     1  UNL1        0.0003
      2 C           2.1084   31.3581    9.3299 C.3     1  UNL1        0.0047
      3 C           1.6549   32.6554   10.0460 C.3     1  UNL1        0.0324
      4 C           2.7091   33.5965    9.6537 C.2     1  UNL1        0.0491
      5 C           2.7839   34.8891    9.4619 C.2     1  UNL1        0.1659
      6 O           3.9357   35.5731    9.0718 O.2     1  UNL1       -0.5030
      7 C           3.8895   32.7448    9.3396 C.2     1  UNL1        0.1721
      8 O           4.9188   33.2938    9.7902 O.2     1  UNL1       -0.2916
      9 C           3.7194   30.9945    8.4954 C.3     1  UNL1        0.0689
     10 C           3.9109   30.8538    9.8467 C.3     1  UNL1        0.0080
     11 C           5.4665   31.2508    8.8787 C.3     1  UNL1        0.0005
     12 C           5.0348   32.3047    7.3244 C.3     1  UNL1        0.0000
     13 C           3.2507   32.7470    6.9296 C.3     1  UNL1        0.0001
     14 C           2.0119   31.8038    7.4953 C.3     1  UNL1        0.0003
     15 C           1.9075   30.6819    6.3612 C.3     1  UNL1        0.0001
     16 C           2.7332   30.8772    4.9665 C.3     1  UNL1        0.0022
     17 C           3.0701   32.3303    4.3942 C.3     1  UNL1        0.0226
     18 C           2.3141   32.4539    3.0386 C.3     1  UNL1        0.0023
     19 C           2.6210   33.2132    5.5362 C.3     1  UNL1        0.0022
     20 C           3.0193   34.6212    5.2026 C.3     1  UNL1        0.0025
     21 C           4.4830   34.3982    4.8963 C.3     1  UNL1        0.0269
     22 C           4.5140   33.0129    4.1352 C.3     1  UNL1        0.0883
     23 C           5.7051   32.0889    4.3164 C.3     1  UNL1        0.0293
     24 O           4.6982   33.4671    2.7732 O.3     1  UNL1       -0.3867
     25 H           4.6978   34.9643    9.2295 H       1  UNL1        0.2923
     26 H           5.5446   33.9559    2.7622 H       1  UNL1        0.2102
@<TRIPOS>BOND
     1     2     3    1
     2     2    10    1
     3     2    14    1
     4     2     1    1
     5     3     4    1
     6     4     7    1
     7     4     5    2
     8     5     6    1
     9     6    25    1
    10     7     9    1
    11     7     8    2
    12     9    10    1
    13    10    11    1
    14    11    12    1
    15    12    13    1
    16    13    14    1
    17    13    19    1
    18    14    15    1
    19    15    16    1
    20    16    17    1
    21    17    19    1
    22    17    22    1
    23    17    18    1
    24    19    20    1
    25    20    21    1
    26    21    22    1
    27    22    24    1
    28    22    23    1
    29    24    26    1
#	Name:			CHEMBL1200600
#	Creating user name:	trannguyen
#	Creation time:		Tue Feb  8 18:26:14 2022


#	Modifying user name:	trannguyen
#	Modification time:	Tue Feb  8 18:26:14 2022

@<TRIPOS>MOLECULE
CHEMBL1200600
 29 32 0 0 0
SMALL
GASTEIGER

@<TRIPOS>ATOM
      1 C           1.9462   32.0428    9.9716 C.3     1  UNL1        0.1389
      2 O           1.9930   31.1411   11.0786 O.3     1  UNL1       -0.3798
      3 C           0.7193   31.6719    9.0912 C.3     1  UNL1        0.0341
      4 C           1.2249   31.5217    7.6494 C.3     1  UNL1        0.0030
      5 C           2.5744   32.2257    7.6524 C.3     1  UNL1        0.0054
      6 C           3.5369   31.9498    6.4855 C.3     1  UNL1        0.0334
      7 C           2.8642   32.2398    5.1362 C.3     1  UNL1        0.0068
      8 C           3.7833   31.9748    3.9401 C.3     1  UNL1        0.0189
      9 C           3.9183   30.4842    3.6157 C.3     1  UNL1        0.0044
     10 C           5.1166   32.6816    4.1147 C.2     1  UNL1       -0.0357
     11 C           5.5477   33.4647    3.1054 C.2     1  UNL1        0.0339
     12 C           6.7621   34.2956    3.2003 C.2     1  UNL1        0.1948
     13 O           7.1634   34.9518    2.2492 O.2     1  UNL1       -0.2866
     14 C           7.4576   34.3109    4.4955 C.2     1  UNL1        0.0378
     15 C           7.0433   33.5369    5.5067 C.2     1  UNL1       -0.0171
     16 C           5.8613   32.5615    5.4686 C.3     1  UNL1        0.0637
     17 C           6.5181   31.1640    5.5745 C.3     1  UNL1        0.0112
     18 C           4.8366   32.8072    6.6603 C.3     1  UNL1        0.1644
     19 F           4.4386   34.1302    6.5833 F       1  UNL1       -0.2369
     20 C           5.4307   32.6428    8.1016 C.3     1  UNL1        0.1409
     21 O           6.4100   33.6503    8.3798 O.3     1  UNL1       -0.3817
     22 C           4.3886   32.7538    9.2361 C.3     1  UNL1        0.0347
     23 C           3.1746   31.8381    9.0215 C.3     1  UNL1        0.0314
     24 C           3.6463   30.3582    9.1062 C.3     1  UNL1        0.0028
     25 H           1.1032   31.1002   11.4733 H       1  UNL1        0.2108
     26 H           6.0048   34.5037    8.1247 H       1  UNL1        0.2104
     27 C           0.4885   34.1731   10.3807 C.3     1  UNL1        0.0748
     28 C           1.8291   33.4887   10.5185 C.2     1  UNL1        0.1749
     29 O           2.7746   34.0711   11.0527 O.2     1  UNL1       -0.2936
@<TRIPOS>BOND
     1    27    28    1
     2    28    29    2
     3     1     3    1
     4     1    23    1
     5     1     2    1
     6     1    28    1
     7     2    25    1
     8     3     4    1
     9     4     5    1
    10     5     6    1
    11     5    23    1
    12     6     7    1
    13     6    18    1
    14     7     8    1
    15     8     9    1
    16     8    10    1
    17    10    11    2
    18    10    16    1
    19    11    12    1
    20    12    13    2
    21    12    14    1
    22    14    15    2
    23    15    16    1
    24    16    17    1
    25    16    18    1
    26    18    19    1
    27    18    20    1
    28    20    22    1
    29    20    21    1
    30    21    26    1
    31    22    23    1
    32    23    24    1
#	Name:			CHEMBL1200604
#	Creating user name:	trannguyen
#	Creation time:		Tue Feb  8 18:26:14 2022


#	Modifying user name:	trannguyen
#	Modification time:	Tue Feb  8 18:26:14 2022

@<TRIPOS>MOLECULE
CHEMBL1200604
 22 23 0 0 0
SMALL
GASTEIGER

@<TRIPOS>ATOM
      1 N           2.9028   32.6052    6.6682 N.am    1  UNL1       -0.2751
      2 C           2.1876   31.6219    7.3521 C.2     1  UNL1        0.2320
      3 O           1.4804   30.8225    6.7388 O.2     1  UNL1       -0.2744
      4 C           5.1362   32.8995    7.6700 C.3     1  UNL1        0.0233
      5 C           3.8285   33.5621    7.2699 C.3     1  UNL1        0.0938
      6 C           2.7077   32.7049    5.2179 C.3     1  UNL1        0.1202
      7 C           3.9767   32.5066    4.4212 C.ar    1  UNL1        0.0008
      8 C           4.5119   33.5604    3.6737 C.ar    1  UNL1        0.0181
      9 C           5.6577   33.3321    2.9240 C.ar    1  UNL1        0.0986
     10 N           6.2926   32.1431    2.8576 N.ar    1  UNL1       -0.2423
     11 C           5.7504   31.1326    3.5659 C.ar    1  UNL1        0.0986
     12 C           4.6129   31.2632    4.3429 C.ar    1  UNL1        0.0181
     13 C           2.2933   31.5310    8.8838 C.3     1  UNL1        0.1281
     14 C           2.6968   30.1454    9.3866 C.ar    1  UNL1       -0.0115
     15 C           4.0624   29.8412    9.5463 C.ar    1  UNL1       -0.0037
     16 C           4.4764   28.5880   10.0016 C.ar    1  UNL1       -0.0003
     17 C           3.5309   27.6198   10.3216 C.ar    1  UNL1       -0.0000
     18 C           2.1734   27.9070   10.1847 C.ar    1  UNL1       -0.0003
     19 C           1.7562   29.1604    9.7207 C.ar    1  UNL1       -0.0037
     20 C           0.9399   32.0002    9.4609 C.3     1  UNL1        0.1506
     21 O          -0.0029   32.3168    8.4384 O.3     1  UNL1       -0.3811
     22 H           0.2894   33.1573    8.0407 H       1  UNL1        0.2105
@<TRIPOS>BOND
     1     4     5    1
     2     5     1    1
     3     1     6    1
     4     1     2   am
     5     6     7    1
     6     7     8   ar
     7     7    12   ar
     8     8     9   ar
     9     9    10   ar
    10    10    11   ar
    11    11    12   ar
    12     2     3    2
    13     2    13    1
    14    13    20    1
    15    13    14    1
    16    20    21    1
    17    21    22    1
    18    14    15   ar
    19    14    19   ar
    20    15    16   ar
    21    16    17   ar
    22    17    18   ar
    23    18    19   ar
#	Name:			CHEMBL1200623
#	Creating user name:	trannguyen
#	Creation time:		Tue Feb  8 18:26:14 2022


#	Modifying user name:	trannguyen
#	Modification time:	Tue Feb  8 18:26:14 2022

@<TRIPOS>MOLECULE
CHEMBL1200623
 22 25 0 0 0
SMALL
GASTEIGER

@<TRIPOS>ATOM
      1 C           9.2319   32.6418    7.3427 C.3     1  UNL1        0.0882
      2 O           9.4886   32.1894    6.0042 O.3     1  UNL1       -0.3867
      3 C           8.5022   33.9832    7.2236 C.3     1  UNL1        0.0269
      4 C           7.1142   33.5799    6.7542 C.3     1  UNL1        0.0025
      5 C           6.7661   32.3114    7.5595 C.3     1  UNL1        0.0023
      6 C           5.7925   32.6429    8.7260 C.3     1  UNL1        0.0007
      7 C           4.3854   33.0613    8.2516 C.3     1  UNL1        0.0043
      8 C           3.5667   31.8982    7.7092 C.3     1  UNL1        0.0217
      9 C           3.4664   30.7944    8.7258 C.2     1  UNL1       -0.0488
     10 C           2.2758   30.2644    9.0612 C.2     1  UNL1       -0.0346
     11 C           2.1122   29.1044    9.9944 C.3     1  UNL1        0.0254
     12 C           3.4197   28.3518   10.2163 C.3     1  UNL1        0.0050
     13 C           4.5632   29.3228   10.4878 C.3     1  UNL1        0.0044
     14 C           4.7838   30.3117    9.3151 C.3     1  UNL1        0.0180
     15 C           5.6852   31.5038    9.7694 C.3     1  UNL1        0.0037
     16 C           7.0743   31.0395   10.2531 C.3     1  UNL1        0.0004
     17 C           8.2425   31.7476    9.5691 C.3     1  UNL1        0.0023
     18 C           8.1533   31.7163    8.0238 C.3     1  UNL1        0.0226
     19 C           8.2741   30.2581    7.5223 C.3     1  UNL1        0.0023
     20 H          10.0851   32.8285    5.5783 H       1  UNL1        0.2102
     21 C          11.6580   31.8096    7.6762 C.3     1  UNL1        0.0025
     22 C          10.5897   32.8300    8.0475 C.3     1  UNL1        0.0269
@<TRIPOS>BOND
     1    21    22    1
     2     1     3    1
     3     1    18    1
     4     1    22    1
     5     1     2    1
     6     2    20    1
     7     3     4    1
     8     4     5    1
     9     5     6    1
    10     5    18    1
    11     6     7    1
    12     6    15    1
    13     7     8    1
    14     8     9    1
    15     9    10    2
    16     9    14    1
    17    10    11    1
    18    11    12    1
    19    12    13    1
    20    13    14    1
    21    14    15    1
    22    15    16    1
    23    16    17    1
    24    17    18    1
    25    18    19    1
#	Name:			CHEMBL1200624
#	Creating user name:	trannguyen
#	Creation time:		Tue Feb  8 18:26:14 2022


#	Modifying user name:	trannguyen
#	Modification time:	Tue Feb  8 18:26:14 2022

@<TRIPOS>MOLECULE
CHEMBL1200624
 28 31 0 0 0
SMALL
GASTEIGER

@<TRIPOS>ATOM
      1 C          11.4474   32.1463    8.9246 C.3     1  UNL1        0.1888
      2 C          10.9087   32.7597   10.2670 C.3     1  UNL1        0.0529
      3 C           9.9012   33.7944    9.7704 C.3     1  UNL1        0.0048
      4 C           9.0391   32.9423    8.8415 C.3     1  UNL1        0.0044
      5 C           8.0037   32.1451    9.7186 C.3     1  UNL1        0.0008
      6 C           6.9702   33.0752   10.3759 C.3     1  UNL1        0.0043
      7 C           5.8331   33.3885    9.4262 C.3     1  UNL1        0.0218
      8 C           5.0550   32.1230    9.2770 C.2     1  UNL1       -0.0454
      9 C           3.7552   32.0895    9.6153 C.2     1  UNL1        0.0082
     10 C           2.9222   30.8448    9.7098 C.3     1  UNL1        0.1903
     11 C           3.7245   29.5373    9.6234 C.3     1  UNL1        0.0486
     12 C           5.2425   29.7033    9.7496 C.3     1  UNL1        0.0081
     13 C           5.8053   30.8657    8.8985 C.3     1  UNL1        0.0182
     14 C           7.3650   30.9093    9.0394 C.3     1  UNL1        0.0037
     15 C           8.0726   30.5584    7.7187 C.3     1  UNL1        0.0005
     16 C           9.5908   30.6235    7.9030 C.3     1  UNL1        0.0043
     17 C          10.1237   32.0811    8.0694 C.3     1  UNL1        0.0445
     18 C          10.3778   32.6568    6.6649 C.3     1  UNL1        0.0045
     19 C          13.4648   33.8028    8.5712 C.1     1  UNL1       -0.0108
     20 C          12.5532   33.0544    8.7308 C.1     1  UNL1       -0.0397
     21 O          11.9613   30.8144    9.1120 O.3     1  UNL1       -0.4433
     22 C          12.8881   30.5415   10.0790 C.2     1  UNL1        0.3182
     23 C          14.1813   30.3018    9.3520 C.3     1  UNL1        0.1212
     24 O          12.7474   30.6031   11.2806 O.2     1  UNL1       -0.2501
     25 O           1.9923   30.9033    8.6163 O.3     1  UNL1       -0.4477
     26 C           0.6894   31.0542    8.9753 C.2     1  UNL1        0.3177
     27 C           0.1235   29.7451    9.4330 C.3     1  UNL1        0.1212
     28 O           0.0316   32.0806    8.8689 O.2     1  UNL1       -0.2501
@<TRIPOS>BOND
     1    19    20    3
     2     1     2    1
     3     1    17    1
     4     1    20    1
     5     1    21    1
     6    21    22    1
     7    22    23    1
     8    22    24    2
     9     2     3    1
    10     3     4    1
    11     4     5    1
    12     4    17    1
    13     5     6    1
    14     5    14    1
    15     6     7    1
    16     7     8    1
    17     8     9    2
    18     8    13    1
    19     9    10    1
    20    10    11    1
    21    10    25    1
    22    25    26    1
    23    26    27    1
    24    26    28    2
    25    11    12    1
    26    12    13    1
    27    13    14    1
    28    14    15    1
    29    15    16    1
    30    16    17    1
    31    17    18    1
#	Name:			CHEMBL1200629
#	Creating user name:	trannguyen
#	Creation time:		Tue Feb  8 18:26:14 2022


#	Modifying user name:	trannguyen
#	Modification time:	Tue Feb  8 18:26:14 2022

@<TRIPOS>MOLECULE
CHEMBL1200629
 40 45 0 0 0
SMALL
GASTEIGER

@<TRIPOS>ATOM
      1 C           7.8770   31.9306    5.6522 C.3     1  UNL1        0.1832
      2 C           9.0709   32.7848    6.0620 C.3     1  UNL1        0.0450
      3 C          10.0571   31.9239    6.8594 C.3     1  UNL1        0.0037
      4 C          11.4074   32.6051    7.0227 C.3     1  UNL1        0.0001
      5 C          11.2939   33.8444    7.8690 C.3     1  UNL1        0.0000
      6 C          10.6790   33.6462    9.2514 C.3     1  UNL1        0.0003
      7 C           9.5590   32.5375    9.3755 C.3     1  UNL1        0.0001
      8 C           8.2503   33.0886    9.9553 C.3     1  UNL1        0.0001
      9 C           7.8541   34.4155    9.3510 C.3     1  UNL1        0.0037
     10 C           8.8600   35.5105    9.7303 C.3     1  UNL1        0.0427
     11 C           8.3863   36.1521   11.0631 C.3     1  UNL1        0.0038
     12 C          10.3078   34.9925    9.9773 C.3     1  UNL1        0.0094
     13 C          11.1983   36.2480    9.7039 C.3     1  UNL1        0.0590
     14 C          10.3403   37.2959    8.9263 C.3     1  UNL1        0.0992
     15 C           9.0802   36.4958    8.5425 C.3     1  UNL1        0.2172
     16 C           9.4582   31.4499    8.2041 C.3     1  UNL1        0.0015
     17 C          10.3574   30.2585    8.6950 C.3     1  UNL1        0.0000
     18 C           8.0522   30.7853    7.9230 C.3     1  UNL1        0.0196
     19 C           7.0466   31.4241    6.8903 C.3     1  UNL1        0.0979
     20 N          11.1343   37.9958    7.7266 N.4     1  UNL1        0.3000
     21 C          12.6308   37.7039    7.9339 C.3     1  UNL1        0.1703
     22 C          10.6672   37.3327    6.4105 C.3     1  UNL1        0.1086
     23 C          11.2348   38.0093    5.1640 C.3     1  UNL1        0.0612
     24 C          10.9756   39.5071    5.1508 C.3     1  UNL1        0.0122
     25 C          11.5145   40.1554    6.4148 C.3     1  UNL1        0.0612
     26 C          10.9216   39.5137    7.6637 C.3     1  UNL1        0.1086
     27 N           6.0032   32.2939    7.5632 N.3     1  UNL1       -0.2709
     28 C           4.8178   32.5215    6.7101 C.3     1  UNL1        0.0722
     29 C           3.7601   33.4209    7.3693 C.3     1  UNL1        0.0174
     30 C           3.5802   33.1734    8.8581 C.3     1  UNL1        0.0029
     31 C           4.0624   31.7844    9.2130 C.3     1  UNL1        0.0174
     32 C           5.5296   31.5830    8.8040 C.3     1  UNL1        0.0722
     33 O           7.0567   32.5923    4.6775 O.3     1  UNL1       -0.4509
     34 C           7.6834   32.1651    2.4769 C.3     1  UNL1        0.1212
     35 C           6.6928   31.9032    3.5677 C.2     1  UNL1        0.3175
     36 O           5.7305   31.1552    3.4669 O.2     1  UNL1       -0.2501
     37 O           7.9172   37.1468    8.0282 O.3     1  UNL1       -0.4463
     38 C           7.6268   38.4521    8.2454 C.2     1  UNL1        0.3176
     39 C           7.4323   39.1002    6.8995 C.3     1  UNL1        0.1212
     40 O           7.5861   38.9832    9.3293 O.2     1  UNL1       -0.2501
@<TRIPOS>UNITY_ATOM_ATTR
20 1
charge 1
@<TRIPOS>BOND
     1    34    35    1
     2    35    36    2
     3    35    33    1
     4     1     2    1
     5     1    19    1
     6     1    33    1
     7     2     3    1
     8     3     4    1
     9     3    16    1
    10     4     5    1
    11     5     6    1
    12     6     7    1
    13     6    12    1
    14     7     8    1
    15     7    16    1
    16     8     9    1
    17     9    10    1
    18    10    12    1
    19    10    15    1
    20    10    11    1
    21    12    13    1
    22    13    14    1
    23    14    15    1
    24    14    20    1
    25    20    21    1
    26    20    22    1
    27    20    26    1
    28    22    23    1
    29    23    24    1
    30    24    25    1
    31    25    26    1
    32    15    37    1
    33    37    38    1
    34    38    39    1
    35    38    40    2
    36    16    18    1
    37    16    17    1
    38    18    19    1
    39    19    27    1
    40    27    28    1
    41    27    32    1
    42    28    29    1
    43    29    30    1
    44    30    31    1
    45    31    32    1
#	Name:			CHEMBL1200633
#	Creating user name:	trannguyen
#	Creation time:		Tue Feb  8 18:26:14 2022


#	Modifying user name:	trannguyen
#	Modification time:	Tue Feb  8 18:26:14 2022

@<TRIPOS>MOLECULE
CHEMBL1200633
 65 71 0 0 0
SMALL
GASTEIGER

@<TRIPOS>ATOM
      1 C           9.3635   39.0358    1.4384 C.3     1  UNL1        0.1175
      2 O           9.9375   37.7447    1.4176 O.3     1  UNL1       -0.3367
      3 C          10.7388   37.5426    2.5407 C.3     1  UNL1        0.1902
      4 C          12.0132   38.3051    2.5236 C.3     1  UNL1        0.0564
      5 C          11.6352   39.7394    2.7430 C.3     1  UNL1        0.0074
      6 C          10.3026   40.1532    2.0480 C.3     1  UNL1        0.0275
      7 C           9.4719   40.9890    3.0448 C.3     1  UNL1        0.0025
      8 C          11.2184   36.0967    2.4164 C.3     1  UNL1        0.0998
      9 C          10.9211   35.4755    3.6903 C.3     1  UNL1        0.1762
     10 C          10.2784   36.5605    4.8891 C.3     1  UNL1        0.0737
     11 C          10.4724   37.9601    4.9413 C.3     1  UNL1        0.1255
     12 C           9.5419   38.5522    6.1209 C.3     1  UNL1        0.0552
     13 C           9.5122   37.8457    7.5126 C.2     1  UNL1       -0.0298
     14 C           9.1193   38.3222    8.7252 C.2     1  UNL1       -0.0211
     15 C           8.9191   39.7871    8.9975 C.3     1  UNL1        0.0285
     16 C           8.8262   37.3909    9.9569 C.3     1  UNL1        0.1397
     17 C          10.0667   37.4260   10.9578 C.3     1  UNL1        0.0532
     18 C           9.8193   36.7434   12.3230 C.3     1  UNL1        0.0075
     19 C          11.2146   36.8572   10.1635 C.2     1  UNL1       -0.0237
     20 C          11.4756   35.5511   10.1484 C.2     1  UNL1       -0.0050
     21 C          12.0457   34.8850    9.0166 C.2     1  UNL1       -0.0041
     22 C          11.8997   33.5623    8.9165 C.2     1  UNL1        0.0122
     23 C          11.1768   32.6459    9.9378 C.3     1  UNL1        0.1668
     24 O          11.5091   31.2774    9.6068 O.3     1  UNL1       -0.3462
     25 C          12.3065   31.3576    8.3755 C.3     1  UNL1        0.1749
     26 C          13.7842   31.3177    8.7213 C.3     1  UNL1        0.1582
     27 O          14.1793   32.2085    9.7931 O.3     1  UNL1       -0.3778
     28 C          14.6443   31.7244    7.5379 C.2     1  UNL1       -0.0188
     29 C          16.0740   31.3823    7.7497 C.3     1  UNL1        0.0285
     30 C          14.2116   32.3977    6.4440 C.2     1  UNL1       -0.0188
     31 C          12.7697   32.8509    6.2327 C.3     1  UNL1        0.1510
     32 C          12.7274   34.2962    5.2962 C.2     1  UNL1        0.3232
     33 O          13.4698   35.0843    5.4016 O.2     1  UNL1       -0.2497
     34 O          11.8391   34.3151    4.1732 O.3     1  UNL1       -0.4517
     35 C          12.0733   32.7290    7.6983 C.3     1  UNL1        0.1467
     36 O          10.7337   32.7931    7.5117 O.3     1  UNL1       -0.3795
     37 O           9.9739   38.1136    3.6367 O.3     1  UNL1       -0.3362
     38 H          13.5060   32.1804   10.4992 H       1  UNL1        0.2109
     39 H          10.4140   33.6540    7.2007 H       1  UNL1        0.2108
     40 C           8.9020   39.2745   -0.0026 C.3     1  UNL1        0.0273
     41 C          10.0368   39.8748   -0.8278 C.3     1  UNL1        0.0025
     42 C           9.1027   37.4537   -1.8763 C.3     1  UNL1        0.0001
     43 C           8.3198   38.0149   -0.6867 C.3     1  UNL1        0.0024
     44 O           8.5803   36.0279    9.5335 O.3     1  UNL1       -0.3284
     45 C           7.8958   35.0536   10.3912 C.3     1  UNL1        0.2379
     46 C           6.4646   35.4683   10.7669 C.3     1  UNL1        0.0934
     47 C           5.2324   34.6147   10.3864 C.3     1  UNL1        0.1498
     48 C           5.4386   33.2074    9.8022 C.3     1  UNL1        0.1718
     49 C           6.9260   32.8195    9.9286 C.3     1  UNL1        0.1473
     50 C           7.1535   32.2822   11.3536 C.3     1  UNL1        0.0348
     51 O           7.8839   33.8564    9.6160 O.3     1  UNL1       -0.3304
     52 O           4.2404   34.6372   11.4517 O.3     1  UNL1       -0.3508
     53 C           2.8970   34.7583   10.9619 C.3     1  UNL1        0.1741
     54 O           4.7289   32.8444    8.5413 O.3     1  UNL1       -0.3279
     55 C           4.4371   31.4844    8.3702 C.3     1  UNL1        0.2377
     56 C           3.7531   30.5811    9.4275 C.3     1  UNL1        0.0934
     57 C           2.4451   31.0880   10.0673 C.3     1  UNL1        0.1494
     58 C           1.3555   31.1407    8.9954 C.3     1  UNL1        0.1647
     59 O           0.1368   31.7872    9.4651 O.3     1  UNL1       -0.3795
     60 C           2.1942   31.9259    7.9311 C.3     1  UNL1        0.1469
     61 C           1.9417   31.9256    6.5571 C.3     1  UNL1        0.0348
     62 O           3.4127   31.3807    7.4672 O.3     1  UNL1       -0.3304
     63 H          -0.4009   32.1277    8.7249 H       1  UNL1        0.2105
     64 O           2.0513   30.1736   11.0919 O.3     1  UNL1       -0.3508
     65 C           1.9647   28.8916   10.5073 C.3     1  UNL1        0.1741
@<TRIPOS>BOND
     1    42    43    1
     2    40    41    1
     3    40     1    1
     4    40    43    1
     5     1     2    1
     6     1     6    1
     7     3     2    1
     8     3     4    1
     9     3     8    1
    10     3    37    1
    11     4     5    1
    12     5     6    1
    13     6     7    1
    14     8     9    1
    15     9    10    1
    16     9    34    1
    17    10    11    1
    18    11    12    1
    19    11    37    1
    20    12    13    1
    21    13    14    2
    22    14    15    1
    23    14    16    1
    24    16    44    1
    25    16    17    1
    26    44    45    1
    27    45    46    1
    28    45    51    1
    29    46    47    1
    30    47    52    1
    31    47    48    1
    32    52    53    1
    33    48    49    1
    34    48    54    1
    35    54    55    1
    36    55    56    1
    37    55    62    1
    38    56    57    1
    39    57    64    1
    40    57    58    1
    41    64    65    1
    42    58    60    1
    43    58    59    1
    44    59    63    1
    45    60    61    1
    46    60    62    1
    47    49    50    1
    48    49    51    1
    49    17    18    1
    50    17    19    1
    51    19    20    2
    52    20    21    1
    53    21    22    2
    54    22    23    1
    55    22    35    1
    56    23    24    1
    57    24    25    1
    58    25    26    1
    59    25    35    1
    60    26    27    1
    61    26    28    1
    62    27    38    1
    63    28    29    1
    64    28    30    2
    65    30    31    1
    66    31    32    1
    67    31    35    1
    68    32    33    2
    69    32    34    1
    70    35    36    1
    71    36    39    1
#	Name:			CHEMBL1200656
#	Creating user name:	trannguyen
#	Creation time:		Tue Feb  8 18:26:14 2022


#	Modifying user name:	trannguyen
#	Modification time:	Tue Feb  8 18:26:14 2022

@<TRIPOS>MOLECULE
CHEMBL1200656
 55 58 0 0 0
SMALL
GASTEIGER

@<TRIPOS>ATOM
      1 C           4.7406   41.2189   -6.2132 C.3     1  UNL1        0.0477
      2 C           5.9899   40.5761   -6.8183 C.3     1  UNL1        0.1736
      3 C           6.7336   41.6203   -7.6934 C.3     1  UNL1        0.0696
      4 C           7.6789   40.9769   -8.6749 C.2     1  UNL1       -0.0224
      5 C           8.9585   41.3431   -8.8611 C.2     1  UNL1       -0.0045
      6 C           9.8697   40.4866   -9.5941 C.2     1  UNL1       -0.0003
      7 C          11.1875   40.4773   -9.3259 C.2     1  UNL1       -0.0000
      8 C          11.8889   39.2009   -9.3447 C.2     1  UNL1       -0.0000
      9 C          12.1325   38.6537   -8.1429 C.2     1  UNL1       -0.0003
     10 C          12.4709   37.2807   -7.8468 C.2     1  UNL1       -0.0022
     11 C          12.2152   36.8265   -6.6068 C.2     1  UNL1        0.0030
     12 C          12.3352   35.4236   -6.0625 C.3     1  UNL1        0.1423
     13 C          13.3380   35.5595   -4.8769 C.3     1  UNL1        0.0645
     14 C          13.6979   34.4291   -3.8791 C.3     1  UNL1        0.1333
     15 O          13.0512   34.5557   -2.5980 O.3     1  UNL1       -0.3361
     16 C          11.6684   34.2194   -2.5547 C.3     1  UNL1        0.1882
     17 O          10.9244   35.2979   -3.0800 O.3     1  UNL1       -0.3634
     18 C          11.2368   34.1677   -1.0680 C.3     1  UNL1        0.0853
     19 C           9.6990   34.1851   -0.9075 C.3     1  UNL1        0.1179
     20 O           9.3548   33.2401    0.1164 O.3     1  UNL1       -0.3842
     21 C           9.1588   35.5781   -0.5170 C.3     1  UNL1        0.0618
     22 C           7.9631   36.0109   -1.3354 C.3     1  UNL1        0.1492
     23 O           7.1807   37.0192   -0.6762 O.3     1  UNL1       -0.3489
     24 C           7.8616   37.4331   -1.8691 C.3     1  UNL1        0.1644
     25 C           7.1030   37.7341   -3.0999 C.2     1  UNL1        0.0119
     26 C           7.3765   38.7101   -3.9717 C.2     1  UNL1        0.0798
     27 C           6.4978   38.9557   -5.1568 C.2     1  UNL1        0.3411
     28 O           5.5935   38.2201   -5.5001 O.2     1  UNL1       -0.2449
     29 O           6.8481   40.1323   -5.7578 O.3     1  UNL1       -0.4489
     30 C          11.3956   32.8326   -3.1936 C.3     1  UNL1        0.0859
     31 C          12.2711   32.4311   -4.3895 C.3     1  UNL1        0.1283
     32 O          12.3618   30.9934   -4.4271 O.3     1  UNL1       -0.3836
     33 C          13.6853   32.9616   -4.2761 C.3     1  UNL1        0.1529
     34 H          10.6596   35.1031   -3.9999 H       1  UNL1        0.2128
     35 H           8.3917   33.2891    0.2483 H       1  UNL1        0.2103
     36 H          11.4538   30.6392   -4.4531 H       1  UNL1        0.2104
     37 C          14.5212   32.6821   -5.5100 C.2     1  UNL1        0.3181
     38 O          15.7158   32.8625   -5.6117 O.2     1  UNL1       -0.2501
     39 O          13.8001   32.1146   -6.5011 O.3     1  UNL1       -0.4801
     40 H          12.8138   32.0939   -6.3180 H       1  UNL1        0.2951
     41 O          11.0599   34.9700   -5.5849 O.3     1  UNL1       -0.3266
     42 C           9.9957   34.8093   -6.5531 C.3     1  UNL1        0.2647
     43 O           9.3518   36.0455   -6.8190 O.3     1  UNL1       -0.3286
     44 C           8.2721   35.9445   -7.7384 C.3     1  UNL1        0.1460
     45 C           7.8766   37.3617   -8.1038 C.3     1  UNL1        0.0348
     46 C           7.1293   35.1992   -7.0606 C.3     1  UNL1        0.1541
     47 O           5.9869   35.0925   -7.9132 O.3     1  UNL1       -0.3805
     48 C           7.6031   33.7844   -6.6829 C.3     1  UNL1        0.1127
     49 N           6.5598   33.1245   -5.8367 N.3     1  UNL1       -0.3181
     50 C           8.9713   33.7891   -5.9634 C.3     1  UNL1        0.1835
     51 O           8.7291   34.0459   -4.5660 O.3     1  UNL1       -0.3783
     52 H           5.4648   35.9084   -7.7896 H       1  UNL1        0.2105
     53 H           5.7507   32.9773   -6.4539 H       1  UNL1        0.1190
     54 H           6.1848   33.8340   -5.1924 H       1  UNL1        0.1190
     55 H           7.9777   33.4577   -4.3486 H       1  UNL1        0.2106
@<TRIPOS>BOND
     1     1     2    1
     2     2     3    1
     3     2    29    1
     4     3     4    1
     5     4     5    2
     6     5     6    1
     7     6     7    2
     8     7     8    1
     9     8     9    2
    10     9    10    1
    11    10    11    2
    12    11    12    1
    13    12    13    1
    14    12    41    1
    15    42    43    1
    16    42    50    1
    17    42    41    1
    18    43    44    1
    19    44    45    1
    20    44    46    1
    21    46    48    1
    22    46    47    1
    23    47    52    1
    24    48    49    1
    25    48    50    1
    26    49    53    1
    27    49    54    1
    28    50    51    1
    29    51    55    1
    30    13    14    1
    31    14    15    1
    32    14    33    1
    33    15    16    1
    34    16    17    1
    35    16    18    1
    36    16    30    1
    37    17    34    1
    38    18    19    1
    39    19    20    1
    40    19    21    1
    41    20    35    1
    42    21    22    1
    43    22    23    1
    44    22    24    1
    45    23    24    1
    46    24    25    1
    47    25    26    2
    48    26    27    1
    49    27    28    2
    50    27    29    1
    51    30    31    1
    52    31    32    1
    53    31    33    1
    54    32    36    1
    55    33    37    1
    56    37    38    2
    57    37    39    1
    58    39    40    1
#	Name:			CHEMBL1200679
#	Creating user name:	trannguyen
#	Creation time:		Tue Feb  8 18:26:14 2022


#	Modifying user name:	trannguyen
#	Modification time:	Tue Feb  8 18:26:14 2022

@<TRIPOS>MOLECULE
CHEMBL1200679
 2 1 0 0 0
SMALL
GASTEIGER

@<TRIPOS>ATOM
      1 CL         -5.2622   40.0102   12.8820 Cl      1  UNL1       -0.1454
      2 H          -4.7942   39.0816   13.5353 H       1  UNL1        0.1454
@<TRIPOS>BOND
     1     1     2    1
#	Name:			CHEMBL1200709
#	Creating user name:	trannguyen
#	Creation time:		Tue Feb  8 18:26:14 2022


#	Modifying user name:	trannguyen
#	Modification time:	Tue Feb  8 18:26:14 2022

@<TRIPOS>MOLECULE
CHEMBL1200709
 15 15 0 0 0
SMALL
GASTEIGER

@<TRIPOS>ATOM
      1 C           3.1380   32.7188    7.6808 C.2     1  UNL1        0.2525
      2 O           3.4192   33.8825    7.4241 O.2     1  UNL1       -0.2696
      3 N           2.6487   32.2725    8.9216 N.am    1  UNL1       -0.2555
      4 C           2.9650   30.9492    9.3716 C.ar    1  UNL1        0.0501
      5 C           4.2990   30.6249    9.6738 C.ar    1  UNL1        0.0146
      6 C           4.6497   29.3264   10.0494 C.ar    1  UNL1        0.0013
      7 C           3.6721   28.3411   10.1344 C.ar    1  UNL1       -0.0002
      8 C           2.3426   28.6575    9.8549 C.ar    1  UNL1       -0.0030
      9 C           1.9711   29.9577    9.4636 C.ar    1  UNL1       -0.0081
     10 C           0.5195   30.2257    9.1870 C.3     1  UNL1        0.0323
     11 C           2.9220   30.8938    4.2808 C.3     1  UNL1        0.0309
     12 C           2.8312   31.9084    5.3710 C.2     1  UNL1       -0.0211
     13 C           3.2474   31.6696    6.6236 C.2     1  UNL1        0.0537
     14 C           2.5589   33.2878    9.9825 C.3     1  UNL1        0.0985
     15 C           1.1227   33.6806   10.3228 C.3     1  UNL1        0.0237
@<TRIPOS>BOND
     1    11    12    1
     2    12    13    2
     3    13     1    1
     4     1     2    2
     5     1     3   am
     6     3    14    1
     7     3     4    1
     8    14    15    1
     9     4     5   ar
    10     4     9   ar
    11     5     6   ar
    12     6     7   ar
    13     7     8   ar
    14     8     9   ar
    15     9    10    1
#	Name:			CHEMBL1200748
#	Creating user name:	trannguyen
#	Creation time:		Tue Feb  8 18:26:14 2022


#	Modifying user name:	trannguyen
#	Modification time:	Tue Feb  8 18:26:14 2022

@<TRIPOS>MOLECULE
CHEMBL1200748
 22 22 0 0 0
SMALL
GASTEIGER

@<TRIPOS>ATOM
      1 C           4.4901   31.8374    7.4694 C.3     1  UNL1        0.0288
      2 C           3.1354   32.3652    7.9812 C.3     1  UNL1        0.1483
      3 N           3.1817   33.8743    7.8513 N.3     1  UNL1       -0.2413
      4 N           2.9227   34.3613    6.5000 N.3     1  UNL1       -0.2695
      5 H           4.0746   34.2112    8.2404 H       1  UNL1        0.1416
      6 H           3.0721   35.3808    6.4509 H       1  UNL1        0.1368
      7 H           1.9188   34.2795    6.2734 H       1  UNL1        0.1368
      8 C           2.0342   31.7931    7.0527 C.2     1  UNL1        0.3279
      9 O           2.2301   31.0960    6.0634 O.2     1  UNL1       -0.2488
     10 O           0.7794   32.1486    7.4287 O.3     1  UNL1       -0.4793
     11 H           0.8797   32.7656    8.1979 H       1  UNL1        0.2951
     12 C           2.8939   31.9924    9.4659 C.3     1  UNL1        0.0530
     13 C           2.7279   30.5352    9.8199 C.ar    1  UNL1       -0.0171
     14 C           3.8457   29.6828    9.8220 C.ar    1  UNL1       -0.0009
     15 C           3.7072   28.3232   10.1074 C.ar    1  UNL1        0.0394
     16 C           2.4443   27.8164   10.3847 C.ar    1  UNL1        0.1675
     17 O           2.2476   26.4929   10.6675 O.3     1  UNL1       -0.5029
     18 C           1.3299   28.6528   10.3757 C.ar    1  UNL1        0.1672
     19 O           0.0889   28.1401   10.6374 O.3     1  UNL1       -0.5029
     20 C           1.4597   30.0058   10.0969 C.ar    1  UNL1        0.0356
     21 H           3.1194   26.0603   10.6788 H       1  UNL1        0.2923
     22 H           0.2617   27.1877   10.7902 H       1  UNL1        0.2923
@<TRIPOS>BOND
     1     2     1    1
     2     2    12    1
     3     2     3    1
     4     2     8    1
     5    12    13    1
     6    13    14   ar
     7    13    20   ar
     8    14    15   ar
     9    15    16   ar
    10    16    17    1
    11    16    18   ar
    12    17    21    1
    13    18    19    1
    14    18    20   ar
    15    19    22    1
    16     3     4    1
    17     3     5    1
    18     4     6    1
    19     4     7    1
    20     8     9    2
    21     8    10    1
    22    10    11    1
#	Name:			CHEMBL1200845
#	Creating user name:	trannguyen
#	Creation time:		Tue Feb  8 18:26:14 2022


#	Modifying user name:	trannguyen
#	Modification time:	Tue Feb  8 18:26:14 2022

@<TRIPOS>MOLECULE
CHEMBL1200845
 32 36 0 0 0
SMALL
GASTEIGER

@<TRIPOS>ATOM
      1 C           7.9276   31.6788    1.0529 C.3     1  UNL1        0.0612
      2 C           7.2911   32.0565    2.3864 C.3     1  UNL1        0.1877
      3 C           6.7318   30.8049    3.0566 C.3     1  UNL1        0.0612
      4 O           6.2357   32.9986    2.1657 O.3     1  UNL1       -0.3339
      5 C           6.5172   34.1152    3.0077 C.3     1  UNL1        0.1491
      6 C           5.8439   33.9446    4.3753 C.3     1  UNL1        0.0327
      7 C           6.9224   34.1320    5.4644 C.3     1  UNL1        0.0079
      8 C           7.2247   32.9086    6.3700 C.3     1  UNL1        0.0332
      9 C           5.9428   32.3055    6.9830 C.3     1  UNL1        0.0071
     10 C           6.2411   31.1499    7.9357 C.3     1  UNL1        0.0223
     11 C           7.1740   31.6403    9.0090 C.2     1  UNL1       -0.0394
     12 C           6.7315   31.7164   10.2768 C.2     1  UNL1        0.0290
     13 C           7.4859   32.4569   11.3111 C.2     1  UNL1        0.1725
     14 O           7.1030   32.4334   12.4766 O.2     1  UNL1       -0.2914
     15 C           8.6302   33.3140   10.8467 C.3     1  UNL1        0.0695
     16 C           9.3968   32.5922    9.7510 C.3     1  UNL1        0.0145
     17 C           8.5404   32.1656    8.5154 C.3     1  UNL1        0.0456
     18 C           9.3052   30.9990    7.8352 C.3     1  UNL1        0.0068
     19 C           8.2492   33.3356    7.4929 C.3     1  UNL1        0.1610
     20 F           7.5795   34.3087    8.2273 F       1  UNL1       -0.2372
     21 C           9.4758   34.0958    6.8790 C.3     1  UNL1        0.1406
     22 O          10.7438   33.6041    7.3053 O.3     1  UNL1       -0.3818
     23 C           9.4934   34.0985    5.3503 C.3     1  UNL1        0.0347
     24 C           8.1916   34.6258    4.7086 C.3     1  UNL1        0.0342
     25 C           8.1922   36.1716    4.7487 C.3     1  UNL1        0.0029
     26 C           8.0060   34.0638    3.2627 C.3     1  UNL1        0.1715
     27 O           8.2698   32.6468    3.2466 O.3     1  UNL1       -0.3297
     28 H          11.4350   34.1730    6.9220 H       1  UNL1        0.2104
     29 C           8.9292   34.7667    2.2380 C.2     1  UNL1        0.1935
     30 O          10.1597   34.7139    2.3588 O.2     1  UNL1       -0.2922
     31 C           8.3260   35.5826    1.1172 C.3     1  UNL1        0.1615
     32 CL          8.7198   34.8583   -0.4441 Cl      1  UNL1       -0.1052
@<TRIPOS>BOND
     1     1     2    1
     2     2     4    1
     3     2    27    1
     4     2     3    1
     5     4     5    1
     6     5     6    1
     7     5    26    1
     8     6     7    1
     9     7     8    1
    10     7    24    1
    11     8     9    1
    12     8    19    1
    13     9    10    1
    14    10    11    1
    15    11    12    2
    16    11    17    1
    17    12    13    1
    18    13    15    1
    19    13    14    2
    20    15    16    1
    21    16    17    1
    22    17    19    1
    23    17    18    1
    24    19    21    1
    25    19    20    1
    26    21    23    1
    27    21    22    1
    28    22    28    1
    29    23    24    1
    30    24    26    1
    31    24    25    1
    32    26    27    1
    33    26    29    1
    34    29    30    2
    35    29    31    1
    36    31    32    1
#	Name:			CHEMBL1200862
#	Creating user name:	trannguyen
#	Creation time:		Tue Feb  8 18:26:14 2022


#	Modifying user name:	trannguyen
#	Modification time:	Tue Feb  8 18:26:14 2022

@<TRIPOS>MOLECULE
CHEMBL1200862
 18 18 0 0 0
SMALL
GASTEIGER

@<TRIPOS>ATOM
      1 C           0.3770   29.1294    9.8109 C.3     1  UNL1        0.0273
      2 C           1.7744   29.2248   10.4539 C.3     1  UNL1        0.1335
      3 N           1.7889   30.4428   11.3007 N.3     1  UNL1       -0.3146
      4 H           2.6938   30.6021   11.7389 H       1  UNL1        0.1193
      5 H           1.0012   30.5054   11.9390 H       1  UNL1        0.1193
      6 C           1.9697   27.9420   11.2962 C.2     1  UNL1        0.3265
      7 O           2.0209   27.9242   12.5230 O.2     1  UNL1       -0.2489
      8 O           2.1258   26.8105   10.5707 O.3     1  UNL1       -0.4793
      9 H           2.0643   26.9917    9.6150 H       1  UNL1        0.2951
     10 C           2.8410   29.3103    9.3274 C.3     1  UNL1        0.0514
     11 C           4.1145   30.0797    9.6241 C.ar    1  UNL1       -0.0201
     12 C           5.1325   29.5117   10.4043 C.ar    1  UNL1       -0.0011
     13 C           6.3240   30.2074   10.6392 C.ar    1  UNL1        0.0363
     14 C           6.5015   31.4727   10.0903 C.ar    1  UNL1        0.1337
     15 O           7.6447   32.1867   10.2979 O.3     1  UNL1       -0.5055
     16 C           5.5115   32.0480    9.3050 C.ar    1  UNL1        0.0363
     17 C           4.3204   31.3551    9.0737 C.ar    1  UNL1       -0.0011
     18 H           8.2297   31.6739   10.8795 H       1  UNL1        0.2922
@<TRIPOS>BOND
     1     2    10    1
     2     2     6    1
     3     2     3    1
     4     2     1    1
     5     3     4    1
     6     3     5    1
     7    10    11    1
     8    11    12   ar
     9    11    17   ar
    10    12    13   ar
    11    13    14   ar
    12    14    15    1
    13    14    16   ar
    14    15    18    1
    15    16    17   ar
    16     6     7    2
    17     6     8    1
    18     8     9    1
#	Name:			CHEMBL1200993
#	Creating user name:	trannguyen
#	Creation time:		Tue Feb  8 18:26:14 2022


#	Modifying user name:	trannguyen
#	Modification time:	Tue Feb  8 18:26:14 2022

@<TRIPOS>MOLECULE
CHEMBL1200993
 36 36 0 0 0
SMALL
GASTEIGER

@<TRIPOS>ATOM
      1 C           6.4216   32.7796    9.9121 C.ar    1  UNL1        0.1756
      2 C           7.1336   32.5438   11.0827 C.ar    1  UNL1        0.0403
      3 C           8.4323   33.0033   11.2270 C.ar    1  UNL1        0.0064
      4 C           9.0417   33.7141   10.1971 C.ar    1  UNL1        0.0403
      5 C           8.3628   33.9959    9.0048 C.ar    1  UNL1        0.1756
      6 C           6.9967   33.5143    8.8389 C.ar    1  UNL1        0.2061
      7 O           6.2826   33.7745    7.6613 O.3     1  UNL1       -0.4630
      8 C           6.2063   32.9649    6.5230 C.3     1  UNL1        0.2661
      9 C           4.7975   32.8380    5.8218 C.3     1  UNL1        0.1566
     10 N           4.7733   32.7512    4.3260 N.4     1  UNL1        0.2998
     11 C           6.0525   33.3246    3.7674 C.3     1  UNL1        0.1088
     12 C           6.8435   32.4078    2.7842 C.3     1  UNL1        0.0671
     13 C           3.6707   33.6387    3.7241 C.3     1  UNL1        0.1088
     14 C           2.4969   34.2219    4.5324 C.3     1  UNL1        0.0671
     15 C           4.6702   31.3349    3.8654 C.3     1  UNL1        0.1088
     16 C           3.2362   30.7650    3.6894 C.3     1  UNL1        0.0671
     17 O           9.0351   34.7437    8.0666 O.3     1  UNL1       -0.4659
     18 C           9.6149   34.1649    6.9733 C.3     1  UNL1        0.2659
     19 C          11.1004   33.7692    7.0642 C.3     1  UNL1        0.1566
     20 N          11.3161   32.2733    7.2108 N.4     1  UNL1        0.2998
     21 C          11.9332   31.9372    8.5522 C.3     1  UNL1        0.1088
     22 C          13.1784   31.0245    8.5018 C.3     1  UNL1        0.0671
     23 C          10.0529   31.4572    6.9882 C.3     1  UNL1        0.1088
     24 C           9.5299   30.5491    8.0906 C.3     1  UNL1        0.0671
     25 C          12.2461   31.8568    6.1033 C.3     1  UNL1        0.1088
     26 C          12.8852   33.0094    5.2823 C.3     1  UNL1        0.0671
     27 O           5.1702   32.2914    9.8205 O.3     1  UNL1       -0.4659
     28 C           4.9139   31.0564    9.2724 C.3     1  UNL1        0.2659
     29 C           3.6423   30.5027    9.9414 C.3     1  UNL1        0.1566
     30 N           2.3192   31.0416    9.4621 N.4     1  UNL1        0.2998
     31 C           2.5138   31.7098    8.1400 C.3     1  UNL1        0.1088
     32 C           1.6987   31.0916    6.9872 C.3     1  UNL1        0.0671
     33 C           1.7771   31.9962   10.5134 C.3     1  UNL1        0.1088
     34 C           1.0405   33.2724   10.0995 C.3     1  UNL1        0.0671
     35 C           1.4796   28.8505   10.5477 C.3     1  UNL1        0.0671
     36 C           1.4220   29.8309    9.3742 C.3     1  UNL1        0.1088
@<TRIPOS>UNITY_ATOM_ATTR
10 1
charge 1
20 1
charge 1
30 1
charge 1
@<TRIPOS>BOND
     1    35    36    1
     2    36    30    1
     3    30    31    1
     4    30    33    1
     5    30    29    1
     6    31    32    1
     7    33    34    1
     8    29    28    1
     9    28    27    1
    10    27     1    1
    11     1     2   ar
    12     1     6   ar
    13     2     3   ar
    14     3     4   ar
    15     4     5   ar
    16     5    17    1
    17     5     6   ar
    18    17    18    1
    19    18    19    1
    20    19    20    1
    21    20    21    1
    22    20    23    1
    23    20    25    1
    24    21    22    1
    25    23    24    1
    26    25    26    1
    27     6     7    1
    28     7     8    1
    29     8     9    1
    30     9    10    1
    31    10    15    1
    32    10    13    1
    33    10    11    1
    34    15    16    1
    35    13    14    1
    36    11    12    1
#	Name:			CHEMBL1201010
#	Creating user name:	trannguyen
#	Creation time:		Tue Feb  8 18:26:14 2022


#	Modifying user name:	trannguyen
#	Modification time:	Tue Feb  8 18:26:14 2022

@<TRIPOS>MOLECULE
CHEMBL1201010
 32 35 0 0 0
SMALL
GASTEIGER

@<TRIPOS>ATOM
      1 C           2.2629   32.0720    9.1547 C.3     1  UNL1        0.1426
      2 O           1.2517   32.1030    8.1377 O.3     1  UNL1       -0.3797
      3 C           2.1629   33.3969    9.9294 C.3     1  UNL1        0.0342
      4 C           2.9009   34.3758    9.0416 C.3     1  UNL1        0.0030
      5 C           4.1797   33.6232    8.6578 C.3     1  UNL1        0.0054
      6 C           5.3305   33.7220    9.7036 C.3     1  UNL1        0.0331
      7 C           5.6746   35.1808   10.0708 C.3     1  UNL1        0.0071
      8 C           6.8353   35.2755   11.0591 C.3     1  UNL1        0.0223
      9 C           8.0231   34.5586   10.4798 C.2     1  UNL1       -0.0394
     10 C           9.1116   35.2698   10.1349 C.2     1  UNL1        0.0290
     11 C          10.1818   34.6829    9.3001 C.2     1  UNL1        0.1725
     12 O          11.1973   35.3335    9.0680 O.2     1  UNL1       -0.2914
     13 C           9.9119   33.3441    8.6719 C.3     1  UNL1        0.0695
     14 C           9.1595   32.4612    9.6535 C.3     1  UNL1        0.0145
     15 C           7.8161   33.0562   10.1852 C.3     1  UNL1        0.0456
     16 C           7.5136   32.3156   11.5152 C.3     1  UNL1        0.0068
     17 C           6.5969   32.9438    9.1834 C.3     1  UNL1        0.1610
     18 F           6.9915   33.6204    8.0375 F       1  UNL1       -0.2372
     19 C           6.1835   31.5178    8.6823 C.3     1  UNL1        0.1406
     20 O           7.0074   30.4610    9.1661 O.3     1  UNL1       -0.3818
     21 C           4.7309   31.1491    9.0345 C.3     1  UNL1        0.0347
     22 C           3.6939   32.1363    8.4553 C.3     1  UNL1        0.0316
     23 C           3.5776   31.8724    6.9294 C.3     1  UNL1        0.0028
     24 H           0.4461   32.5175    8.4987 H       1  UNL1        0.2108
     25 H           6.7756   29.6518    8.6768 H       1  UNL1        0.2104
     26 C           1.9687   30.9041   10.1377 C.2     1  UNL1        0.2183
     27 O           1.9446   31.0704   11.3613 O.2     1  UNL1       -0.2897
     28 C           1.7564   29.5162    9.5373 C.3     1  UNL1        0.2744
     29 O           1.2699   28.5082   10.4216 O.3     1  UNL1       -0.4402
     30 C           3.4320   27.7240    9.9817 C.3     1  UNL1        0.1212
     31 C           2.2321   27.6578   10.8898 C.2     1  UNL1        0.3180
     32 O           2.1072   26.8997   11.8317 O.2     1  UNL1       -0.2501
@<TRIPOS>BOND
     1    30    31    1
     2    31    32    2
     3    31    29    1
     4    29    28    1
     5    28    26    1
     6    26    27    2
     7     1     3    1
     8     1    22    1
     9     1     2    1
    10     1    26    1
    11     2    24    1
    12     3     4    1
    13     4     5    1
    14     5     6    1
    15     5    22    1
    16     6     7    1
    17     6    17    1
    18     7     8    1
    19     8     9    1
    20     9    10    2
    21     9    15    1
    22    10    11    1
    23    11    13    1
    24    11    12    2
    25    13    14    1
    26    14    15    1
    27    15    17    1
    28    15    16    1
    29    17    19    1
    30    17    18    1
    31    19    21    1
    32    19    20    1
    33    20    25    1
    34    21    22    1
    35    22    23    1
#	Name:			CHEMBL1201012
#	Creating user name:	trannguyen
#	Creation time:		Tue Feb  8 18:26:14 2022


#	Modifying user name:	trannguyen
#	Modification time:	Tue Feb  8 18:26:14 2022

@<TRIPOS>MOLECULE
CHEMBL1201012
 33 37 0 0 0
SMALL
GASTEIGER

@<TRIPOS>ATOM
      1 C          10.7879   33.3761    8.1075 C.3     1  UNL1        0.0612
      2 C           9.7887   33.1365    9.2342 C.3     1  UNL1        0.1877
      3 C          10.3645   33.5986   10.5669 C.3     1  UNL1        0.0612
      4 O           9.5220   31.7423    9.3012 O.3     1  UNL1       -0.3339
      5 C           8.1526   31.5686    8.9736 C.3     1  UNL1        0.1491
      6 C           7.3789   31.1083   10.2013 C.3     1  UNL1        0.0326
      7 C           5.9608   31.6448    9.9682 C.3     1  UNL1        0.0054
      8 C           5.1507   30.7600    8.9766 C.3     1  UNL1        0.0058
      9 C           4.8727   29.3460    9.5075 C.3     1  UNL1        0.0397
     10 C           3.7793   29.3207   10.5565 C.3     1  UNL1        0.1794
     11 F           3.6406   28.0276   10.9702 F       1  UNL1       -0.2328
     12 C           2.4970   29.8564    9.9754 C.2     1  UNL1       -0.0100
     13 C           1.3968   29.0799    9.9757 C.2     1  UNL1        0.0315
     14 C           0.0931   29.5749    9.4961 C.2     1  UNL1        0.1726
     15 O          -0.8754   28.8075    9.4626 O.2     1  UNL1       -0.2914
     16 C          -0.0250   31.0304    9.1676 C.3     1  UNL1        0.0695
     17 C           1.2668   31.5385    8.5391 C.3     1  UNL1        0.0120
     18 C           2.5544   31.2815    9.3933 C.3     1  UNL1        0.0204
     19 C           2.5374   32.2732   10.5726 C.3     1  UNL1        0.0042
     20 C           3.8376   31.4141    8.4538 C.3     1  UNL1        0.0305
     21 C           4.1963   32.7918    7.8487 C.3     1  UNL1        0.1108
     22 O           3.0452   33.4990    7.4137 O.3     1  UNL1       -0.3845
     23 C           5.0042   33.7004    8.7713 C.3     1  UNL1        0.0320
     24 C           6.2473   33.0910    9.4540 C.3     1  UNL1        0.0341
     25 C           6.5277   34.0271   10.6677 C.3     1  UNL1        0.0029
     26 C           7.5691   32.9324    8.5859 C.3     1  UNL1        0.1727
     27 O           8.5868   33.8676    8.9711 O.3     1  UNL1       -0.3297
     28 H           3.3506   34.2856    6.9249 H       1  UNL1        0.2103
     29 C           7.3716   33.0450    7.0627 C.2     1  UNL1        0.2065
     30 O           7.2511   34.1319    6.4882 O.2     1  UNL1       -0.2909
     31 C           7.4078   31.7566    6.2425 C.3     1  UNL1        0.2045
     32 O           6.4630   31.7758    5.1819 O.3     1  UNL1       -0.3749
     33 H           5.5797   31.7369    5.5949 H       1  UNL1        0.2110
@<TRIPOS>BOND
     1     1     2    1
     2     2     4    1
     3     2    27    1
     4     2     3    1
     5     4     5    1
     6     5     6    1
     7     5    26    1
     8     6     7    1
     9     7     8    1
    10     7    24    1
    11     8     9    1
    12     8    20    1
    13     9    10    1
    14    10    12    1
    15    10    11    1
    16    12    13    2
    17    12    18    1
    18    13    14    1
    19    14    16    1
    20    14    15    2
    21    16    17    1
    22    17    18    1
    23    18    20    1
    24    18    19    1
    25    20    21    1
    26    21    23    1
    27    21    22    1
    28    22    28    1
    29    23    24    1
    30    24    26    1
    31    24    25    1
    32    26    27    1
    33    26    29    1
    34    29    30    2
    35    29    31    1
    36    31    32    1
    37    32    33    1
#	Name:			CHEMBL1201024
#	Creating user name:	trannguyen
#	Creation time:		Tue Feb  8 18:26:14 2022


#	Modifying user name:	trannguyen
#	Modification time:	Tue Feb  8 18:26:14 2022

@<TRIPOS>MOLECULE
CHEMBL1201024
 24 27 0 0 0
SMALL
GASTEIGER

@<TRIPOS>ATOM
      1 O           4.8446   32.4373    9.9582 O.3     1  UNL1       -0.4516
      2 C           8.2979   33.2929   11.0532 C.3     1  UNL1        0.1704
      3 N           8.7213   32.8324    9.6772 N.4     1  UNL1        0.3017
      4 C          10.2564   33.0078    9.6427 C.3     1  UNL1        0.1704
      5 C           8.0844   33.5115    8.4566 C.3     1  UNL1        0.0925
      6 C           6.5654   33.5563    8.6603 C.3     1  UNL1        0.1014
      7 C           5.9128   32.1930    9.0090 C.3     1  UNL1        0.1804
      8 C           6.8638   31.1415    9.6312 C.3     1  UNL1        0.1014
      9 C           8.3572   31.3594    9.3163 C.3     1  UNL1        0.0925
     10 C           8.6218   31.2449    7.8226 C.3     1  UNL1        0.1971
     11 O           7.5845   31.5747    6.8964 O.3     1  UNL1       -0.3416
     12 C           8.4552   32.6379    7.2716 C.3     1  UNL1        0.1971
     13 C           3.5776   32.5108    9.4373 C.2     1  UNL1        0.3230
     14 O           2.7801   33.3902    9.7114 O.2     1  UNL1       -0.2497
     15 C           3.2845   31.3010    8.5480 C.3     1  UNL1        0.1504
     16 C           2.9038   30.0800    9.3913 C.ar    1  UNL1       -0.0095
     17 C           1.5532   29.8864    9.7388 C.ar    1  UNL1       -0.0037
     18 C           1.1448   28.7525   10.4442 C.ar    1  UNL1       -0.0003
     19 C           2.0807   27.7950   10.8220 C.ar    1  UNL1       -0.0000
     20 C           3.4235   27.9754   10.5006 C.ar    1  UNL1       -0.0003
     21 C           3.8323   29.1054    9.7865 C.ar    1  UNL1       -0.0037
     22 C           2.2450   31.7150    7.4892 C.3     1  UNL1        0.1526
     23 O           2.5616   32.9962    6.9483 O.3     1  UNL1       -0.3811
     24 H           1.7218   33.4348    6.7238 H       1  UNL1        0.2105
@<TRIPOS>UNITY_ATOM_ATTR
3 1
charge 1
@<TRIPOS>BOND
     1     2     3    1
     2     3     5    1
     3     3     9    1
     4     3     4    1
     5     5     6    1
     6     5    12    1
     7     6     7    1
     8     7     8    1
     9     7     1    1
    10     1    13    1
    11    13    14    2
    12    15    22    1
    13    15    16    1
    14    15    13    1
    15    22    23    1
    16    23    24    1
    17    16    17   ar
    18    16    21   ar
    19    17    18   ar
    20    18    19   ar
    21    19    20   ar
    22    20    21   ar
    23     8     9    1
    24     9    10    1
    25    10    11    1
    26    10    12    1
    27    11    12    1
#	Name:			CHEMBL1201117
#	Creating user name:	trannguyen
#	Creation time:		Tue Feb  8 18:26:14 2022


#	Modifying user name:	trannguyen
#	Modification time:	Tue Feb  8 18:26:14 2022

@<TRIPOS>MOLECULE
CHEMBL1201117
 20 20 0 0 0
SMALL
GASTEIGER

@<TRIPOS>ATOM
      1 C           1.4931   30.7325    7.7396 C.3     1  UNL1        0.2384
      2 C           1.7057   31.1037    9.2159 C.3     1  UNL1        0.1983
      3 O           0.4315   31.3569    9.8166 O.3     1  UNL1       -0.3776
      4 H           0.1195   30.5335   10.2377 H       1  UNL1        0.2106
      5 C           2.4694   29.9893    9.9445 C.3     1  UNL1        0.2429
      6 O           1.9130   29.6995   11.2371 O.3     1  UNL1       -0.4320
      7 C           1.4106   28.4609   11.3940 C.2     1  UNL1        0.3985
      8 N           0.2177   28.3797   10.7708 N.am    1  UNL1       -0.2950
      9 O           1.9053   27.5573   12.0647 O.2     1  UNL1       -0.2267
     10 H          -0.1478   29.2021   10.3125 H       1  UNL1        0.1482
     11 H          -0.3662   27.5675   10.9016 H       1  UNL1        0.1482
     12 O           1.5475   31.9191    6.9469 O.3     1  UNL1       -0.4697
     13 C           3.6814   32.7147    6.2141 C.ar    1  UNL1        0.1724
     14 C           4.7493   32.6159    5.3089 C.ar    1  UNL1        0.0400
     15 C           4.6589   31.7992    4.1792 C.ar    1  UNL1        0.0033
     16 C           3.5030   31.0619    3.9513 C.ar    1  UNL1        0.0033
     17 C           2.4454   31.1323    4.8566 C.ar    1  UNL1        0.0400
     18 C           2.5213   31.9563    5.9870 C.ar    1  UNL1        0.1723
     19 C           4.8109   33.0188    8.2890 C.3     1  UNL1        0.2526
     20 O           3.9306   33.5282    7.2918 O.3     1  UNL1       -0.4684
@<TRIPOS>BOND
     1    19    20    1
     2    20    13    1
     3    13    14   ar
     4    13    18   ar
     5    14    15   ar
     6    15    16   ar
     7    16    17   ar
     8    17    18   ar
     9    18    12    1
    10    12     1    1
    11     1     2    1
    12     2     3    1
    13     2     5    1
    14     3     4    1
    15     5     6    1
    16     6     7    1
    17     7     8   am
    18     7     9    2
    19     8    10    1
    20     8    11    1
#	Name:			CHEMBL1201139
#	Creating user name:	trannguyen
#	Creation time:		Tue Feb  8 18:26:14 2022


#	Modifying user name:	trannguyen
#	Modification time:	Tue Feb  8 18:26:14 2022

@<TRIPOS>MOLECULE
CHEMBL1201139
 28 31 0 0 0
SMALL
GASTEIGER

@<TRIPOS>ATOM
      1 C           9.7775   34.1102    8.6603 C.3     1  UNL1        0.1859
      2 C          10.6219   33.7080    7.4314 C.3     1  UNL1        0.0474
      3 C           9.7431   32.6966    6.6925 C.3     1  UNL1        0.0045
      4 C           8.8918   31.9805    7.7713 C.3     1  UNL1        0.0078
      5 C           7.3815   31.6628    7.4599 C.3     1  UNL1        0.0221
      6 C           6.6598   32.4988    6.4433 C.2     1  UNL1       -0.0310
      7 C           5.3273   32.6295    6.3331 C.2     1  UNL1       -0.0300
      8 C           4.7566   33.3527    5.1344 C.3     1  UNL1        0.0304
      9 C           4.4187   32.0517    7.3200 C.2     1  UNL1       -0.0242
     10 C           3.1076   31.8806    7.0542 C.2     1  UNL1        0.0328
     11 C           2.1448   31.3718    8.0604 C.2     1  UNL1        0.1728
     12 O           0.9401   31.4427    7.8233 O.2     1  UNL1       -0.2913
     13 C           2.6631   30.8201    9.3624 C.3     1  UNL1        0.0695
     14 C           4.1629   30.5662    9.3152 C.3     1  UNL1        0.0122
     15 C           4.9937   31.7419    8.7061 C.3     1  UNL1        0.0194
     16 C           4.7609   33.0206    9.5560 C.3     1  UNL1        0.0044
     17 C           6.5117   31.2604    8.6963 C.3     1  UNL1        0.0078
     18 C           7.2293   31.4839   10.0428 C.3     1  UNL1        0.0008
     19 C           8.0342   32.7766   10.0615 C.3     1  UNL1        0.0038
     20 C           9.2437   32.6983    9.1193 C.3     1  UNL1        0.0404
     21 C          10.3378   31.8315    9.8168 C.3     1  UNL1        0.0039
     22 C          10.6328   34.8549    9.7245 C.2     1  UNL1        0.1869
     23 C          12.0206   35.3159    9.3503 C.3     1  UNL1        0.0760
     24 O          10.1828   35.1463   10.8369 O.2     1  UNL1       -0.2924
     25 O           8.6356   34.8554    8.1698 O.3     1  UNL1       -0.4486
     26 C           7.8645   36.9317    8.9523 C.3     1  UNL1        0.1212
     27 C           8.7650   36.1999    7.9960 C.2     1  UNL1        0.3177
     28 O           9.4302   36.7391    7.1388 O.2     1  UNL1       -0.2501
@<TRIPOS>BOND
     1    26    27    1
     2    27    28    2
     3    27    25    1
     4     1     2    1
     5     1    20    1
     6     1    22    1
     7     1    25    1
     8    22    23    1
     9    22    24    2
    10     2     3    1
    11     3     4    1
    12     4     5    1
    13     4    20    1
    14     5     6    1
    15     5    17    1
    16     6     7    2
    17     7     9    1
    18     7     8    1
    19     9    10    2
    20     9    15    1
    21    10    11    1
    22    11    13    1
    23    11    12    2
    24    13    14    1
    25    14    15    1
    26    15    17    1
    27    15    16    1
    28    17    18    1
    29    18    19    1
    30    19    20    1
    31    20    21    1
#	Name:			CHEMBL1201146
#	Creating user name:	trannguyen
#	Creation time:		Tue Feb  8 18:26:14 2022


#	Modifying user name:	trannguyen
#	Modification time:	Tue Feb  8 18:26:14 2022

@<TRIPOS>MOLECULE
CHEMBL1201146
 25 28 0 0 0
SMALL
GASTEIGER

@<TRIPOS>ATOM
      1 C           7.4617   33.6167    9.5448 C.3     1  UNL1        0.1888
      2 C           7.8401   32.9363   10.8657 C.3     1  UNL1        0.0529
      3 C           7.2109   31.5460   10.7184 C.3     1  UNL1        0.0048
      4 C           5.8402   31.7957   10.0595 C.3     1  UNL1        0.0044
      5 C           5.3802   30.6989    9.0748 C.3     1  UNL1        0.0008
      6 C           5.2261   29.3110    9.7147 C.3     1  UNL1        0.0044
      7 C           4.0433   29.2227   10.6699 C.3     1  UNL1        0.0221
      8 C           2.7548   29.6697   10.0268 C.2     1  UNL1       -0.0417
      9 C           1.6305   28.9516   10.1976 C.2     1  UNL1        0.0290
     10 C           0.3160   29.4541    9.7303 C.2     1  UNL1        0.1725
     11 O          -0.6883   28.7651    9.8898 O.2     1  UNL1       -0.2914
     12 C           0.2545   30.8534    9.1767 C.3     1  UNL1        0.0695
     13 C           1.5210   31.1642    8.3985 C.3     1  UNL1        0.0121
     14 C           2.7953   30.9788    9.2555 C.3     1  UNL1        0.0188
     15 C           4.0636   31.1045    8.3541 C.3     1  UNL1        0.0037
     16 C           4.1471   32.5124    7.7162 C.3     1  UNL1        0.0005
     17 C           5.4957   33.1909    7.9049 C.3     1  UNL1        0.0043
     18 C           5.9521   33.1984    9.3830 C.3     1  UNL1        0.0445
     19 C           5.0238   34.1739   10.1703 C.3     1  UNL1        0.0045
     20 C           9.0742   32.6537    7.6250 C.1     1  UNL1       -0.0108
     21 C           8.3277   33.1069    8.4443 C.1     1  UNL1       -0.0397
     22 O           7.5064   35.0529    9.5471 O.3     1  UNL1       -0.4433
     23 C           8.4933   35.6806   10.2332 C.2     1  UNL1        0.3182
     24 C           7.8698   36.5651   11.2730 C.3     1  UNL1        0.1212
     25 O           9.6863   35.6536    9.9729 O.2     1  UNL1       -0.2501
@<TRIPOS>BOND
     1    20    21    3
     2     1     2    1
     3     1    18    1
     4     1    22    1
     5     1    21    1
     6    22    23    1
     7    23    24    1
     8    23    25    2
     9     2     3    1
    10     3     4    1
    11     4     5    1
    12     4    18    1
    13     5     6    1
    14     5    15    1
    15     6     7    1
    16     7     8    1
    17     8     9    2
    18     8    14    1
    19     9    10    1
    20    10    12    1
    21    10    11    2
    22    12    13    1
    23    13    14    1
    24    14    15    1
    25    15    16    1
    26    16    17    1
    27    17    18    1
    28    18    19    1
#	Name:			CHEMBL1201151
#	Creating user name:	trannguyen
#	Creation time:		Tue Feb  8 18:26:14 2022


#	Modifying user name:	trannguyen
#	Modification time:	Tue Feb  8 18:26:14 2022

@<TRIPOS>MOLECULE
CHEMBL1201151
 24 27 0 0 0
SMALL
GASTEIGER

@<TRIPOS>ATOM
      1 C           2.2966   31.0454    9.7576 C.3     1  UNL1        0.1420
      2 O           1.8518   31.7034   10.9383 O.3     1  UNL1       -0.3753
      3 C           1.0570   30.5990    8.9545 C.3     1  UNL1        0.0395
      4 C           1.5197   30.6406    7.5063 C.3     1  UNL1        0.0036
      5 C           2.2259   31.9960    7.4460 C.3     1  UNL1        0.0035
      6 C           2.9329   32.2368    6.0893 C.3     1  UNL1        0.0045
      7 C           2.7950   33.7071    5.6528 C.3     1  UNL1        0.0050
      8 C           3.2709   33.8863    4.2138 C.3     1  UNL1        0.0261
      9 C           4.6282   33.2861    3.9674 C.ar    1  UNL1       -0.0231
     10 C           5.3606   33.7029    2.8429 C.ar    1  UNL1        0.0323
     11 C           6.6159   33.1660    2.5517 C.ar    1  UNL1        0.1384
     12 C           7.1328   32.1687    3.3734 C.ar    1  UNL1        0.0366
     13 C           6.4027   31.7288    4.4817 C.ar    1  UNL1       -0.0015
     14 C           5.1511   32.2837    4.7989 C.ar    1  UNL1       -0.0263
     15 C           4.4155   31.8042    6.0418 C.3     1  UNL1        0.0220
     16 C           5.1674   32.2530    7.3027 C.3     1  UNL1        0.0045
     17 C           4.5345   31.6166    8.5304 C.3     1  UNL1        0.0035
     18 C           3.0643   32.0376    8.7699 C.3     1  UNL1        0.0333
     19 C           3.0551   33.4839    9.3177 C.3     1  UNL1        0.0033
     20 H           1.4310   31.0301   11.4998 H       1  UNL1        0.2114
     21 C           3.6315   28.8870   10.4631 C.1     1  UNL1       -0.0119
     22 C           3.0284   29.8622   10.1443 C.1     1  UNL1       -0.0526
     23 O           7.2219   33.6866    1.4417 O.3     1  UNL1       -0.4714
     24 C           7.9293   32.7714    0.6145 C.3     1  UNL1        0.2525
@<TRIPOS>BOND
     1    21    22    3
     2     1     3    1
     3     1    18    1
     4     1    22    1
     5     1     2    1
     6     2    20    1
     7     3     4    1
     8     4     5    1
     9     5     6    1
    10     5    18    1
    11     6     7    1
    12     6    15    1
    13     7     8    1
    14     8     9    1
    15     9    10   ar
    16     9    14   ar
    17    10    11   ar
    18    11    12   ar
    19    11    23    1
    20    23    24    1
    21    12    13   ar
    22    13    14   ar
    23    14    15    1
    24    15    16    1
    25    16    17    1
    26    17    18    1
    27    18    19    1
#	Name:			CHEMBL1201193
#	Creating user name:	trannguyen
#	Creation time:		Tue Feb  8 18:26:14 2022


#	Modifying user name:	trannguyen
#	Modification time:	Tue Feb  8 18:26:14 2022

@<TRIPOS>MOLECULE
CHEMBL1201193
 22 23 0 0 0
SMALL
GASTEIGER

@<TRIPOS>ATOM
      1 C           4.1540   32.2675    9.0829 C.2     1  UNL1        0.2406
      2 O           3.9208   32.8293   10.1589 O.2     1  UNL1       -0.2733
      3 N           3.6691   31.0160    8.7010 N.am    1  UNL1       -0.2833
      4 H           4.1793   30.5829    7.9439 H       1  UNL1        0.1549
      5 C           2.8531   30.1241    9.4533 C.ar    1  UNL1        0.0423
      6 C           1.4471   30.2159    9.5356 C.ar    1  UNL1       -0.0087
      7 C           0.6043   31.2324    8.8158 C.3     1  UNL1        0.0323
      8 C           0.7351   29.2665   10.3030 C.ar    1  UNL1       -0.0031
      9 C           1.3778   28.2059   10.9283 C.ar    1  UNL1       -0.0006
     10 C           2.7531   28.0815   10.8111 C.ar    1  UNL1       -0.0031
     11 C           3.5033   29.0328   10.0940 C.ar    1  UNL1       -0.0087
     12 C           4.9988   28.8391   10.0735 C.3     1  UNL1        0.0323
     13 N           6.5725   32.7856    8.4680 N.3     1  UNL1       -0.2666
     14 C           7.3552   33.6481    7.5611 C.3     1  UNL1        0.0725
     15 C           7.2883   33.2156    6.0942 C.3     1  UNL1        0.0174
     16 C           5.8609   32.9729    5.5973 C.3     1  UNL1        0.0033
     17 C           4.9262   32.3201    6.6232 C.3     1  UNL1        0.0254
     18 C           5.1452   32.8707    8.0386 C.3     1  UNL1        0.1351
     19 C           7.0984   31.3994    8.5067 C.3     1  UNL1        0.0725
     20 C           8.5129   31.2762    9.1090 C.3     1  UNL1        0.0173
     21 C          10.7619   30.1628    8.8701 C.3     1  UNL1        0.0000
     22 C           9.4991   30.6093    8.1516 C.3     1  UNL1        0.0014
@<TRIPOS>BOND
     1    21    22    1
     2    22    20    1
     3    20    19    1
     4    19    13    1
     5    13    14    1
     6    13    18    1
     7    14    15    1
     8    15    16    1
     9    16    17    1
    10    17    18    1
    11    18     1    1
    12     1     2    2
    13     1     3   am
    14     3     5    1
    15     3     4    1
    16     5     6   ar
    17     5    11   ar
    18     6     7    1
    19     6     8   ar
    20     8     9   ar
    21     9    10   ar
    22    10    11   ar
    23    11    12    1
#	Name:			CHEMBL1201195
#	Creating user name:	trannguyen
#	Creation time:		Tue Feb  8 18:26:14 2022


#	Modifying user name:	trannguyen
#	Modification time:	Tue Feb  8 18:26:14 2022

@<TRIPOS>MOLECULE
CHEMBL1201195
 32 34 0 0 0
SMALL
GASTEIGER

@<TRIPOS>ATOM
      1 C           4.9439   32.3085    4.1585 C.3     1  UNL1        0.2496
      2 C           5.9259   31.3752    3.2946 C.2     1  UNL1        0.2753
      3 O           6.1710   30.2053    3.1100 O.2     1  UNL1       -0.2700
      4 N           6.5892   32.4564    2.8199 N.am    1  UNL1       -0.2381
      5 C           7.5837   32.7474    1.9250 C.2     1  UNL1        0.1245
      6 C           8.0853   34.0147    1.8633 C.2     1  UNL1       -0.0021
      7 C           7.6447   35.1656    2.7615 C.3     1  UNL1        0.0835
      8 S           6.5742   34.7258    4.1731 S.3     1  UNL1       -0.1118
      9 C           5.6540   33.4526    3.2923 C.3     1  UNL1        0.1797
     10 N           5.2163   32.2638    5.6455 N.am    1  UNL1       -0.2764
     11 C           4.5039   33.0461    6.5462 C.2     1  UNL1        0.2354
     12 O           3.6108   33.8191    6.2090 O.2     1  UNL1       -0.2741
     13 H           6.1036   31.8837    5.9526 H       1  UNL1        0.1520
     14 C           4.9395   32.9359    8.0058 C.3     1  UNL1        0.1434
     15 S           3.9481   31.6833    8.8744 S.3     1  UNL1       -0.1142
     16 C           2.5465   32.7352    9.3985 C.3     1  UNL1        0.1630
     17 C           1.2409   32.1519    9.0811 C.1     1  UNL1        0.0851
     18 N           0.2136   31.6649    8.7882 N.1     1  UNL1       -0.1950
     19 C           8.1290   31.6761    1.0041 C.2     1  UNL1        0.3514
     20 O           7.5554   31.3033   -0.0092 O.2     1  UNL1       -0.2437
     21 O           9.3117   31.1389    1.3396 O.3     1  UNL1       -0.4763
     22 H           9.6588   31.3294    2.2392 H       1  UNL1        0.2954
     23 C           2.9890   30.8779    4.1089 C.3     1  UNL1        0.1765
     24 O           3.5446   32.1471    3.8111 O.3     1  UNL1       -0.3296
     25 C           9.2570   34.4219    0.9642 C.3     1  UNL1        0.0894
     26 S           8.7271   35.5962   -0.3219 S.3     1  UNL1       -0.0697
     27 C           8.4866   34.4994   -1.6394 C.ar    1  UNL1        0.2110
     28 N           7.3518   33.9735   -2.0411 N.ar    1  UNL1       -0.1015
     29 N           7.6724   33.1390   -3.0870 N.ar    1  UNL1       -0.0221
     30 N           8.9797   33.1386   -3.3134 N.ar    1  UNL1       -0.0425
     31 N           9.4914   33.9990   -2.4141 N.ar    1  UNL1       -0.2064
     32 C          10.9045   34.2427   -2.3599 C.3     1  UNL1        0.1578
@<TRIPOS>BOND
     1    23    24    1
     2     1     2    1
     3     1     9    1
     4     1    10    1
     5     1    24    1
     6    10    11   am
     7    10    13    1
     8    11    12    2
     9    11    14    1
    10    14    15    1
    11    15    16    1
    12    16    17    1
    13    17    18    3
    14     2     4   am
    15     2     3    2
    16     4     5    1
    17     4     9    1
    18     5     6    2
    19     5    19    1
    20    19    20    2
    21    19    21    1
    22    21    22    1
    23     6     7    1
    24     6    25    1
    25    25    26    1
    26    26    27    1
    27    27    28   ar
    28    27    31   ar
    29    28    29   ar
    30    29    30   ar
    31    30    31   ar
    32    31    32    1
    33     7     8    1
    34     8     9    1
#	Name:			CHEMBL1201203
#	Creating user name:	trannguyen
#	Creation time:		Tue Feb  8 18:26:14 2022


#	Modifying user name:	trannguyen
#	Modification time:	Tue Feb  8 18:26:14 2022

@<TRIPOS>MOLECULE
CHEMBL1201203
 23 26 0 0 0
SMALL
GASTEIGER

@<TRIPOS>ATOM
      1 C           3.5019   32.4098    7.7132 C.3     1  UNL1        0.1596
      2 C           3.1410   32.4771    6.2245 C.ar    1  UNL1        0.0087
      3 C           2.9917   31.3110    5.4563 C.ar    1  UNL1       -0.0016
      4 C           2.7123   31.3825    4.0872 C.ar    1  UNL1       -0.0002
      5 C           2.5790   32.6178    3.4612 C.ar    1  UNL1       -0.0000
      6 C           2.6973   33.7870    4.2094 C.ar    1  UNL1       -0.0002
      7 C           2.9730   33.7171    5.5807 C.ar    1  UNL1       -0.0016
      8 C           2.6695   31.3910    8.4818 C.ar    1  UNL1        0.0087
      9 C           3.2909   30.3573    9.1930 C.ar    1  UNL1       -0.0016
     10 C           2.5334   29.3719    9.8317 C.ar    1  UNL1       -0.0002
     11 C           1.1368   29.4171    9.7647 C.ar    1  UNL1       -0.0000
     12 C           0.5075   30.4556    9.0958 C.ar    1  UNL1       -0.0002
     13 C           1.2618   31.4492    8.4730 C.ar    1  UNL1       -0.0016
     14 O           4.9273   32.1913    7.8310 O.3     1  UNL1       -0.3498
     15 C           8.8893   33.9139   10.1974 C.3     1  UNL1        0.0896
     16 N           8.2422   32.6713    9.8515 N.3     1  UNL1       -0.2739
     17 C           8.0993   32.3449    8.4345 C.3     1  UNL1        0.0600
     18 C           7.5126   30.9319    8.5835 C.3     1  UNL1        0.0174
     19 C           6.7958   30.9495    9.9462 C.3     1  UNL1        0.0174
     20 C           6.9177   32.4005   10.4144 C.3     1  UNL1        0.0600
     21 C           5.7913   33.2884    9.8296 C.3     1  UNL1        0.0456
     22 C           5.7302   33.3030    8.2834 C.3     1  UNL1        0.1187
     23 C           7.1572   33.3329    7.7229 C.3     1  UNL1        0.0456
@<TRIPOS>BOND
     1    15    16    1
     2    16    17    1
     3    16    20    1
     4    17    18    1
     5    17    23    1
     6    18    19    1
     7    19    20    1
     8    20    21    1
     9    21    22    1
    10    22    23    1
    11    22    14    1
    12    14     1    1
    13     1     2    1
    14     1     8    1
    15     2     3   ar
    16     2     7   ar
    17     3     4   ar
    18     4     5   ar
    19     5     6   ar
    20     6     7   ar
    21     8     9   ar
    22     8    13   ar
    23     9    10   ar
    24    10    11   ar
    25    11    12   ar
    26    12    13   ar
#	Name:			CHEMBL1201207
#	Creating user name:	trannguyen
#	Creation time:		Tue Feb  8 18:26:14 2022


#	Modifying user name:	trannguyen
#	Modification time:	Tue Feb  8 18:26:14 2022

@<TRIPOS>MOLECULE
CHEMBL1201207
 36 39 0 0 0
SMALL
GASTEIGER

@<TRIPOS>ATOM
      1 C           5.8529   32.9994    5.7169 C.3     1  UNL1        0.0028
      2 C           6.0562   31.9211    6.7937 C.3     1  UNL1        0.0315
      3 C           7.5032   31.9809    7.3227 C.3     1  UNL1        0.0029
      4 C           7.3918   33.0442    8.4013 C.3     1  UNL1        0.0054
      5 C           8.6146   33.3781    9.2642 C.3     1  UNL1        0.0334
      6 C           9.8426   33.6867    8.3924 C.3     1  UNL1        0.0071
      7 C          11.0509   34.0713    9.2378 C.3     1  UNL1        0.0226
      8 C          10.7180   35.2229   10.1507 C.2     1  UNL1       -0.0354
      9 C          11.4476   36.3528   10.0884 C.2     1  UNL1        0.0339
     10 C          11.1307   37.5345   10.9102 C.2     1  UNL1        0.1948
     11 O          11.8264   38.5480   10.8674 O.2     1  UNL1       -0.2866
     12 C           9.9521   37.4509   11.7856 C.2     1  UNL1        0.0378
     13 C           9.2246   36.3274   11.8542 C.2     1  UNL1       -0.0171
     14 C           9.4944   35.0421   11.0734 C.3     1  UNL1        0.0638
     15 C           9.8341   33.9756   12.1406 C.3     1  UNL1        0.0112
     16 C           8.2571   34.5988   10.1826 C.3     1  UNL1        0.1644
     17 F           7.9878   35.6552    9.3259 F       1  UNL1       -0.2369
     18 C           6.9141   34.3525   10.9507 C.3     1  UNL1        0.1409
     19 O           6.4217   35.5671   11.5302 O.3     1  UNL1       -0.3817
     20 C           5.7626   33.8195   10.0600 C.3     1  UNL1        0.0347
     21 C           6.1563   32.5925    9.2184 C.3     1  UNL1        0.0315
     22 C           6.4737   31.4284   10.2087 C.3     1  UNL1        0.0028
     23 C           5.1596   32.0844    8.0750 C.3     1  UNL1        0.1413
     24 O           4.7231   30.7483    8.3879 O.3     1  UNL1       -0.3797
     25 H           6.4243   36.2329   10.8132 H       1  UNL1        0.2104
     26 H           4.1328   30.7809    9.1647 H       1  UNL1        0.2108
     27 C           3.8783   32.9165    7.7737 C.2     1  UNL1        0.2047
     28 O           3.7577   34.1196    8.0235 O.2     1  UNL1       -0.2910
     29 C           2.6934   32.1831    7.1514 C.3     1  UNL1        0.2199
     30 O           2.1710   31.2269    8.0448 O.3     1  UNL1       -0.2653
     31 P           1.1044   31.6814    9.1476 P.3     1  UNL1        0.4735
     32 O           1.5990   32.4624   10.3116 O.2     1  UNL1       -0.2275
     33 O          -0.0031   32.4345    8.2793 O.3     1  UNL1       -0.3026
     34 O           0.3198   30.3491    9.5348 O.3     1  UNL1       -0.3026
     35 H          -0.6841   32.8356    8.8469 H       1  UNL1        0.2220
     36 H           0.8029   29.8179   10.2067 H       1  UNL1        0.2220
@<TRIPOS>BOND
     1     2     3    1
     2     2    23    1
     3     2     1    1
     4     3     4    1
     5     4     5    1
     6     4    21    1
     7     5     6    1
     8     5    16    1
     9     6     7    1
    10     7     8    1
    11     8     9    2
    12     8    14    1
    13     9    10    1
    14    10    11    2
    15    10    12    1
    16    12    13    2
    17    13    14    1
    18    14    15    1
    19    14    16    1
    20    16    17    1
    21    16    18    1
    22    18    20    1
    23    18    19    1
    24    19    25    1
    25    20    21    1
    26    21    22    1
    27    21    23    1
    28    23    24    1
    29    23    27    1
    30    24    26    1
    31    27    28    2
    32    27    29    1
    33    29    30    1
    34    30    31    1
    35    31    32    2
    36    31    33    1
    37    31    34    1
    38    33    35    1
    39    34    36    1
#	Name:			CHEMBL1201216
#	Creating user name:	trannguyen
#	Creation time:		Tue Feb  8 18:26:14 2022


#	Modifying user name:	trannguyen
#	Modification time:	Tue Feb  8 18:26:14 2022

@<TRIPOS>MOLECULE
CHEMBL1201216
 24 27 0 0 0
SMALL
GASTEIGER

@<TRIPOS>ATOM
      1 N           3.4014   32.9318    6.7904 N.pl3   1  UNL1       -0.3049
      2 C           2.8322   32.9381    5.4199 C.3     1  UNL1        0.1081
      3 C           3.7327   33.7014    4.4275 C.3     1  UNL1        0.0938
      4 N           5.1202   33.1928    4.3512 N.3     1  UNL1       -0.2694
      5 C           5.6687   33.2440    5.7342 C.3     1  UNL1        0.0938
      6 C           4.8283   32.5120    6.8214 C.3     1  UNL1        0.1081
      7 C           3.1046   34.0278    9.5401 C.3     1  UNL1        0.0323
      8 C           2.4836   32.7352    9.0795 C.ar    1  UNL1       -0.0085
      9 C           1.7129   32.0176   10.0206 C.ar    1  UNL1       -0.0030
     10 C           1.0602   30.8386    9.6739 C.ar    1  UNL1       -0.0002
     11 C           1.1791   30.3505    8.3839 C.ar    1  UNL1        0.0012
     12 C           1.9557   31.0387    7.4487 C.ar    1  UNL1        0.0142
     13 C           2.6243   32.2420    7.7596 C.ar    1  UNL1        0.0439
     14 C           5.2468   31.8236    3.7993 C.3     1  UNL1        0.0802
     15 C           6.6895   31.3072    3.6414 C.3     1  UNL1        0.0832
     16 C           7.1887   31.5247    2.2509 C.ar    1  UNL1        0.1444
     17 N           7.2239   30.6249    1.2823 N.ar    1  UNL1       -0.1336
     18 N           7.7770   31.2051    0.1678 N.ar    1  UNL1       -0.1337
     19 C           8.0814   32.4513    0.4699 C.ar    1  UNL1        0.1429
     20 N           7.7054   32.6926    1.7605 N.ar    1  UNL1       -0.3021
     21 C           7.9260   33.9493    2.4483 C.3     1  UNL1        0.1084
     22 C           8.3012   35.0890    1.4974 C.3     1  UNL1        0.0250
     23 C           9.2966   34.6197    0.4331 C.3     1  UNL1        0.0100
     24 C           8.6998   33.4834   -0.3982 C.3     1  UNL1        0.0659
@<TRIPOS>BOND
     1     7     8    1
     2     8     9   ar
     3     8    13   ar
     4     9    10   ar
     5    10    11   ar
     6    11    12   ar
     7    12    13   ar
     8    13     1    1
     9     1     2    1
    10     1     6    1
    11     2     3    1
    12     3     4    1
    13     4    14    1
    14     4     5    1
    15    14    15    1
    16    15    16    1
    17    16    17   ar
    18    16    20   ar
    19    17    18   ar
    20    18    19   ar
    21    19    20   ar
    22    19    24    1
    23    20    21    1
    24    21    22    1
    25    22    23    1
    26    23    24    1
    27     5     6    1
#	Name:			CHEMBL1201220
#	Creating user name:	trannguyen
#	Creation time:		Tue Feb  8 18:26:14 2022


#	Modifying user name:	trannguyen
#	Modification time:	Tue Feb  8 18:26:14 2022

@<TRIPOS>MOLECULE
CHEMBL1201220
 23 23 0 0 0
SMALL
GASTEIGER

@<TRIPOS>ATOM
      1 C           3.6031   32.9092    7.2120 C.ar    1  UNL1        0.0626
      2 C           4.7219   33.2052    8.0119 C.ar    1  UNL1        0.0578
      3 I           4.4000   34.2944    9.8359 I       1  UNL1       -0.0399
      4 C           6.0297   33.0518    7.5180 C.ar    1  UNL1        0.0626
      5 C           6.2131   32.8367    6.1288 C.ar    1  UNL1        0.0506
      6 I           8.2509   32.5906    5.4660 I       1  UNL1       -0.0410
      7 C           5.0964   32.7044    5.2577 C.ar    1  UNL1        0.0886
      8 C           3.8035   32.6317    5.8385 C.ar    1  UNL1        0.0506
      9 I           2.1754   31.7610    4.7093 I       1  UNL1       -0.0410
     10 C           0.6102   31.5956    9.1152 C.3     1  UNL1        0.0949
     11 C           1.9948   31.5747    8.5062 C.2     1  UNL1        0.2266
     12 O           2.7212   30.5876    8.5826 O.2     1  UNL1       -0.2748
     13 N           2.3373   32.7456    7.8475 N.am    1  UNL1       -0.2832
     14 H           1.5582   33.1911    7.3706 H       1  UNL1        0.1549
     15 N           7.1626   33.0734    8.3906 N.am    1  UNL1       -0.2832
     16 C           7.5464   31.9096    9.0553 C.2     1  UNL1        0.2266
     17 C           8.9002   32.0055    9.7217 C.3     1  UNL1        0.0949
     18 O           6.9031   30.8633    9.0632 O.2     1  UNL1       -0.2748
     19 H           7.9518   33.6202    8.0594 H       1  UNL1        0.1549
     20 C           5.2858   32.6332    3.7677 C.2     1  UNL1        0.3389
     21 O           5.1616   33.5579    3.0060 O.2     1  UNL1       -0.2451
     22 O           5.5200   31.3743    3.3120 O.3     1  UNL1       -0.4771
     23 H           5.7992   30.7095    3.9695 H       1  UNL1        0.2954
@<TRIPOS>BOND
     1    10    11    1
     2    11    12    2
     3    11    13   am
     4    13     1    1
     5    13    14    1
     6     1     2   ar
     7     1     8   ar
     8     2     3    1
     9     2     4   ar
    10     4    15    1
    11     4     5   ar
    12    15    16   am
    13    15    19    1
    14    16    17    1
    15    16    18    2
    16     5     6    1
    17     5     7   ar
    18     7    20    1
    19     7     8   ar
    20    20    21    2
    21    20    22    1
    22    22    23    1
    23     8     9    1
#	Name:			CHEMBL1201237
#	Creating user name:	trannguyen
#	Creation time:		Tue Feb  8 18:26:14 2022


#	Modifying user name:	trannguyen
#	Modification time:	Tue Feb  8 18:26:14 2022

@<TRIPOS>MOLECULE
CHEMBL1201237
 23 24 0 0 0
SMALL
GASTEIGER

@<TRIPOS>ATOM
      1 O           3.8383   32.0243    8.6887 O.3     1  UNL1       -0.4731
      2 C           4.0357   30.8159    9.3322 C.ar    1  UNL1        0.1347
      3 C           5.3072   30.2453    9.5038 C.ar    1  UNL1        0.0366
      4 C           5.4694   29.0129   10.1388 C.ar    1  UNL1        0.0032
      5 C           4.3614   28.3200   10.5999 C.ar    1  UNL1        0.0027
      6 C           3.0812   28.8532   10.4196 C.ar    1  UNL1        0.0336
      7 C           2.8991   30.1035    9.7806 C.ar    1  UNL1        0.0145
      8 C           1.4994   30.6557    9.6577 C.3     1  UNL1        0.0300
      9 C           0.4851   29.5295    9.4681 C.3     1  UNL1        0.0129
     10 C           0.5290   28.5475   10.6285 C.3     1  UNL1        0.0695
     11 C           1.9246   28.0489   10.9009 C.2     1  UNL1        0.1728
     12 O           2.1121   27.0062   11.5420 O.2     1  UNL1       -0.2913
     13 C           4.9119   32.9833    8.8254 C.3     1  UNL1        0.2357
     14 C           5.6808   33.1544    7.5033 C.3     1  UNL1        0.1697
     15 O           7.0030   32.6134    7.6004 O.3     1  UNL1       -0.3793
     16 H           7.4334   33.1059    8.3242 H       1  UNL1        0.2106
     17 C           4.9264   32.5002    6.3136 C.3     1  UNL1        0.1020
     18 N           3.5920   33.0776    6.0661 N.3     1  UNL1       -0.2975
     19 H           3.1300   33.1891    6.9736 H       1  UNL1        0.1232
     20 C           1.9362   31.2815    5.9876 C.3     1  UNL1        0.0158
     21 C           2.7220   32.3098    5.1465 C.3     1  UNL1        0.0421
     22 C           3.5236   31.5334    4.0868 C.3     1  UNL1        0.0158
     23 C           1.7001   33.2334    4.4604 C.3     1  UNL1        0.0158
@<TRIPOS>BOND
     1    20    21    1
     2    21    22    1
     3    21    23    1
     4    21    18    1
     5    18    17    1
     6    18    19    1
     7    14    15    1
     8    14    13    1
     9    14    17    1
    10    15    16    1
    11    13     1    1
    12     1     2    1
    13     2     3   ar
    14     2     7   ar
    15     3     4   ar
    16     4     5   ar
    17     5     6   ar
    18     6     7   ar
    19     6    11    1
    20     7     8    1
    21     8     9    1
    22     9    10    1
    23    10    11    1
    24    11    12    2
#	Name:			CHEMBL1201346
#	Creating user name:	trannguyen
#	Creation time:		Tue Feb  8 18:26:14 2022


#	Modifying user name:	trannguyen
#	Modification time:	Tue Feb  8 18:26:14 2022

@<TRIPOS>MOLECULE
CHEMBL1201346
 30 31 0 0 0
SMALL
GASTEIGER

@<TRIPOS>ATOM
      1 C           0.9956   36.8449    9.8726 C.ar    1  UNL1        0.0535
      2 C           2.2868   36.3963    9.5724 C.ar    1  UNL1        0.0061
      3 C           2.6361   35.0603    9.8105 C.ar    1  UNL1        0.0211
      4 C           1.7076   34.1611   10.3513 C.ar    1  UNL1        0.1029
      5 C           0.4315   34.6367   10.6873 C.ar    1  UNL1        0.0211
      6 C           0.0757   35.9632   10.4527 C.ar    1  UNL1        0.0061
      7 N           0.5809   39.0973   10.6761 N.am    1  UNL1       -0.3003
      8 C           0.6212   38.2572    9.5813 C.2     1  UNL1        0.2459
      9 O           0.3392   38.6180    8.4451 O.2     1  UNL1       -0.2701
     10 H           0.6128   38.6984   11.6046 H       1  UNL1        0.1498
     11 C           0.2253   40.4944   10.5641 C.3     1  UNL1        0.1014
     12 C           1.3689   41.3156   10.0015 C.3     1  UNL1        0.1305
     13 O           0.9251   43.0857   11.5625 O.2     1  UNL1       -0.2502
     14 C           1.7410   42.3763   10.9927 C.2     1  UNL1        0.3156
     15 O           3.0659   42.4474   11.2416 O.3     1  UNL1       -0.4801
     16 H           3.6058   41.8046   10.7352 H       1  UNL1        0.2951
     17 N           2.0991   32.8293   10.5946 N.2     1  UNL1       -0.1480
     18 N           2.8045   32.3824    9.6640 N.2     1  UNL1       -0.1480
     19 C           3.1488   31.0323    9.8518 C.ar    1  UNL1        0.1033
     20 C           4.4458   30.6284    9.5142 C.ar    1  UNL1        0.0240
     21 C           4.8595   29.3081    9.7037 C.ar    1  UNL1        0.0384
     22 C           3.9701   28.3788   10.2457 C.ar    1  UNL1        0.1399
     23 O           4.3835   27.0844   10.4308 O.3     1  UNL1       -0.5053
     24 C           2.6683   28.7580   10.6035 C.ar    1  UNL1        0.1106
     25 C           2.2731   30.0890   10.4048 C.ar    1  UNL1        0.0304
     26 H           5.2986   26.9963   10.1003 H       1  UNL1        0.2922
     27 C           1.6538   27.8382   11.1944 C.2     1  UNL1        0.3410
     28 O           1.9562   26.9275   11.9511 O.2     1  UNL1       -0.2450
     29 O           0.3777   28.0769   10.8295 O.3     1  UNL1       -0.4770
     30 H           0.3009   28.8465   10.2235 H       1  UNL1        0.2954
@<TRIPOS>BOND
     1    13    14    2
     2    14    15    1
     3    14    12    1
     4    15    16    1
     5    12    11    1
     6    11     7    1
     7     7     8   am
     8     7    10    1
     9     8     9    2
    10     8     1    1
    11     1     2   ar
    12     1     6   ar
    13     2     3   ar
    14     3     4   ar
    15     4    17    1
    16     4     5   ar
    17    17    18    2
    18    18    19    1
    19    19    20   ar
    20    19    25   ar
    21    20    21   ar
    22    21    22   ar
    23    22    23    1
    24    22    24   ar
    25    23    26    1
    26    24    27    1
    27    24    25   ar
    28    27    28    2
    29    27    29    1
    30    29    30    1
    31     5     6   ar
#	Name:			CHEMBL1201353
#	Creating user name:	trannguyen
#	Creation time:		Tue Feb  8 18:26:14 2022


#	Modifying user name:	trannguyen
#	Modification time:	Tue Feb  8 18:26:14 2022

@<TRIPOS>MOLECULE
CHEMBL1201353
 19 20 0 0 0
SMALL
GASTEIGER

@<TRIPOS>ATOM
      1 C           1.7994   31.3345    8.9025 C.3     1  UNL1        0.0638
      2 C           2.2874   31.7876    7.5245 C.ar    1  UNL1       -0.0168
      3 C           3.0862   32.9311    7.3576 C.ar    1  UNL1       -0.0030
      4 C           3.4417   33.3751    6.0809 C.ar    1  UNL1        0.0111
      5 C           2.9865   32.6914    4.9574 C.ar    1  UNL1        0.0577
      6 CL          3.3795   33.2710    3.3856 Cl      1  UNL1       -0.0822
      7 C           2.2007   31.5514    5.0986 C.ar    1  UNL1        0.0111
      8 C           1.8635   31.0956    6.3761 C.ar    1  UNL1       -0.0030
      9 C           2.4910   30.0596    9.4070 C.ar    1  UNL1        0.0627
     10 C           3.8791   30.0125    9.5252 C.ar    1  UNL1        0.0151
     11 C           4.4785   28.8414    9.9947 C.ar    1  UNL1        0.0028
     12 C           3.6875   27.7551   10.3355 C.ar    1  UNL1        0.0207
     13 C           2.3170   27.8835   10.2002 C.ar    1  UNL1        0.0985
     14 N           1.7079   29.0017    9.7569 N.ar    1  UNL1       -0.2478
     15 C           1.9463   32.4673    9.9505 C.3     1  UNL1        0.0276
     16 C           0.7051   33.3450   10.1709 C.3     1  UNL1        0.0729
     17 C           2.1279   35.3237   10.1308 C.3     1  UNL1        0.0897
     18 N           0.9646   34.6789   10.7456 N.3     1  UNL1       -0.2703
     19 C          -0.2197   35.5261   10.5561 C.3     1  UNL1        0.0897
@<TRIPOS>BOND
     1    17    18    1
     2    18    19    1
     3    18    16    1
     4    16    15    1
     5    15     1    1
     6     1     2    1
     7     1     9    1
     8     2     3   ar
     9     2     8   ar
    10     3     4   ar
    11     4     5   ar
    12     5     6    1
    13     5     7   ar
    14     7     8   ar
    15     9    10   ar
    16     9    14   ar
    17    10    11   ar
    18    11    12   ar
    19    12    13   ar
    20    13    14   ar
#	Name:			CHEMBL1201356
#	Creating user name:	trannguyen
#	Creation time:		Tue Feb  8 18:26:14 2022


#	Modifying user name:	trannguyen
#	Modification time:	Tue Feb  8 18:26:14 2022

@<TRIPOS>MOLECULE
CHEMBL1201356
 28 31 0 0 0
SMALL
GASTEIGER

@<TRIPOS>ATOM
      1 C           2.0677   31.7604    7.7909 C.3     1  UNL1        0.1140
      2 C           3.5716   31.8877    7.8913 C.2     1  UNL1       -0.0190
      3 C           4.2634   32.4874    6.9030 C.2     1  UNL1       -0.0112
      4 C           5.7363   32.4161    6.8243 C.ar    1  UNL1       -0.0019
      5 C           6.6336   31.8905    7.7650 C.ar    1  UNL1       -0.0002
      6 C           7.9979   31.7669    7.4674 C.ar    1  UNL1        0.0015
      7 C           8.5175   32.1481    6.2222 C.ar    1  UNL1        0.0170
      8 C           7.6173   32.6907    5.3034 C.ar    1  UNL1        0.0563
      9 N           7.7837   33.1535    4.0162 N.ar    1  UNL1       -0.3523
     10 H           8.6608   33.1522    3.5144 H       1  UNL1        0.1660
     11 C           6.5916   33.6341    3.5239 C.ar    1  UNL1        0.0681
     12 C           5.6411   33.4657    4.5040 C.ar    1  UNL1       -0.0021
     13 C           6.2722   32.8434    5.6020 C.ar    1  UNL1        0.0128
     14 C           4.2121   33.8553    4.5830 C.3     1  UNL1        0.0484
     15 C           3.4495   33.1279    5.7480 C.3     1  UNL1        0.0843
     16 N           2.4163   32.1819    5.2418 N.3     1  UNL1       -0.2681
     17 C           3.0001   31.0568    4.5087 C.3     1  UNL1        0.0899
     18 C           1.5260   31.7193    6.3320 C.3     1  UNL1        0.0859
     19 N           2.5342   29.8144    9.2362 N.am    1  UNL1       -0.3032
     20 C           1.5714   30.5246    8.5451 C.2     1  UNL1        0.2275
     21 O           0.3851   30.1836    8.5057 O.2     1  UNL1       -0.2747
     22 H           3.4990   30.1164    9.1513 H       1  UNL1        0.1495
     23 CA          2.2438   28.5486    9.9347 C.3     1  UNL1        0.1008
     24 C           1.5189   28.8329   11.2680 C.3     1  UNL1        0.1565
     25 O           1.9393   27.9608   12.3156 O.3     1  UNL1       -0.3802
     26 H           1.8289   27.0469   12.0052 H       1  UNL1        0.2105
     27 C           4.8366   28.5732   10.0224 C.3     1  UNL1        0.0018
     28 C           3.5529   27.7587   10.1602 C.3     1  UNL1        0.0221
@<TRIPOS>BOND
     1    27    28    1
     2    28    23    1
     3    23    24    1
     4    23    19    1
     5    24    25    1
     6    25    26    1
     7    19    20   am
     8    19    22    1
     9    20    21    2
    10    20     1    1
    11     1     2    1
    12     1    18    1
    13     2     3    2
    14     3     4    1
    15     3    15    1
    16     4     5   ar
    17     4    13   ar
    18     5     6   ar
    19     6     7   ar
    20     7     8   ar
    21     8     9   ar
    22     8    13   ar
    23     9    11   ar
    24     9    10    1
    25    11    12   ar
    26    12    13   ar
    27    12    14    1
    28    14    15    1
    29    15    16    1
    30    16    18    1
    31    16    17    1
#	Name:			CHEMBL1208572
#	Creating user name:	trannguyen
#	Creation time:		Tue Feb  8 18:26:14 2022


#	Modifying user name:	trannguyen
#	Modification time:	Tue Feb  8 18:26:14 2022

@<TRIPOS>MOLECULE
CHEMBL1208572
 57 61 0 0 0
SMALL
GASTEIGER

@<TRIPOS>ATOM
      1 C           9.4085   35.6613   -7.9301 C.3     1  UNL1        0.1247
      2 O           9.2426   35.3197   -6.5609 O.3     1  UNL1       -0.3329
      3 C           8.1284   34.5846   -6.0412 C.3     1  UNL1        0.2085
      4 C           8.6551   33.2658   -5.4421 C.2     1  UNL1        0.0270
      5 C           8.4596   32.8904   -4.1618 C.2     1  UNL1        0.0077
      6 C           7.8855   33.8739   -3.1813 C.3     1  UNL1        0.1840
      7 O           8.5115   33.6505   -1.9201 O.3     1  UNL1       -0.3756
      8 C           8.1742   35.2975   -3.7329 C.3     1  UNL1        0.2181
      9 C           7.7315   36.4141   -2.7774 C.3     1  UNL1        0.0617
     10 C           9.0428   36.9328   -2.1824 C.3     1  UNL1        0.0348
     11 C          10.0408   36.6946   -3.3098 C.3     1  UNL1        0.1201
     12 C           9.8752   37.7635   -4.3877 C.3     1  UNL1        0.0322
     13 O           9.6024   35.4441   -3.8534 O.3     1  UNL1       -0.3344
     14 O           7.5292   35.4101   -5.0022 O.3     1  UNL1       -0.3084
     15 C           6.9483   34.2796   -7.0248 C.3     1  UNL1        0.0560
     16 C           6.3629   32.8500   -6.9354 C.3     1  UNL1        0.0054
     17 C           7.1764   34.6379   -8.4850 C.3     1  UNL1        0.0076
     18 C           8.6140   34.7962   -8.9113 C.3     1  UNL1        0.0279
     19 C           9.3266   33.4658   -9.1960 C.3     1  UNL1        0.0025
     20 H           9.4394   33.9216   -2.0458 H       1  UNL1        0.2110
     21 C          11.5072   36.4089   -2.8870 C.3     1  UNL1        0.1400
     22 C          11.7187   36.2142   -1.3769 C.3     1  UNL1        0.0345
     23 C          11.4734   34.7888   -0.8948 C.3     1  UNL1        0.0319
     24 C          12.0764   33.7055   -1.8079 C.3     1  UNL1        0.1132
     25 O          11.3063   32.4988   -1.5911 O.3     1  UNL1       -0.3844
     26 C          11.8975   34.0691   -3.3145 C.3     1  UNL1        0.1396
     27 C          12.7364   33.2313   -4.2759 C.3     1  UNL1        0.0345
     28 O          12.1985   35.4222   -3.6359 O.3     1  UNL1       -0.3540
     29 H          11.2119   32.3709   -0.6311 H       1  UNL1        0.2103
     30 C          13.5147   33.3468   -1.3668 C.3     1  UNL1        0.0293
     31 C          13.7570   31.9203   -0.9064 C.3     1  UNL1        0.0026
     32 C           9.4776   37.2127   -8.2543 C.3     1  UNL1        0.0849
     33 C          11.8069   37.6993   -9.4709 C.3     1  UNL1        0.0005
     34 C          10.2982   37.5205   -9.5410 C.3     1  UNL1        0.0098
     35 C           8.1299   38.0355   -8.2486 C.2     1  UNL1        0.1545
     36 O           7.4050   38.0855   -7.2528 O.2     1  UNL1       -0.2959
     37 C           7.6534   38.7764   -9.5315 C.3     1  UNL1        0.0846
     38 C           6.4984   37.9254  -10.0518 C.3     1  UNL1        0.0103
     39 C           7.2811   40.2882   -9.3440 C.3     1  UNL1        0.1196
     40 O           6.2231   40.3211   -8.3748 O.3     1  UNL1       -0.3839
     41 H           5.5026   40.8663   -8.7396 H       1  UNL1        0.2104
     42 C           8.4565   41.2311   -8.8286 C.3     1  UNL1        0.0545
     43 C           9.7924   40.9815   -9.5597 C.3     1  UNL1        0.0050
     44 C           8.5442   41.3165   -7.2408 C.3     1  UNL1        0.1173
     45 O           7.3569   41.9240   -6.6428 O.3     1  UNL1       -0.3581
     46 C           7.2550   41.8683   -5.1761 C.3     1  UNL1        0.1256
     47 C           8.5161   42.5355   -4.6083 C.3     1  UNL1        0.0302
     48 C           9.7636   41.8132   -5.0963 C.3     1  UNL1        0.0049
     49 C           9.8490   41.8911   -6.6279 C.3     1  UNL1        0.0274
     50 C          10.1975   43.3312   -7.0247 C.3     1  UNL1        0.0025
     51 C           6.9105   40.4335   -4.6536 C.3     1  UNL1        0.1259
     52 C           5.5864   39.9182   -5.1881 C.2     1  UNL1        0.3157
     53 O           5.2246   38.8162   -4.9500 O.2     1  UNL1       -0.2502
     54 O           4.7492   40.7988   -5.7472 O.3     1  UNL1       -0.4801
     55 H           5.1687   41.6287   -6.1081 H       1  UNL1        0.2951
     56 C           6.8530   40.0850   -3.1279 C.3     1  UNL1        0.0136
     57 C           6.0420   40.9446   -2.1763 C.3     1  UNL1        0.0007
@<TRIPOS>BOND
     1    33    34    1
     2    34    32    1
     3    32    35    1
     4    32     1    1
     5    35    36    2
     6    35    37    1
     7    37    38    1
     8    37    39    1
     9    39    40    1
    10    40    41    1
    11    42    43    1
    12    42    39    1
    13    44    45    1
    14    44    49    1
    15    44    42    1
    16    45    46    1
    17    46    47    1
    18    46    51    1
    19    51    56    1
    20    51    52    1
    21    56    57    1
    22    52    53    2
    23    52    54    1
    24    54    55    1
    25    47    48    1
    26    48    49    1
    27    49    50    1
    28     1     2    1
    29     1    18    1
    30     3     2    1
    31     3     4    1
    32     3    14    1
    33     3    15    1
    34     4     5    2
    35     5     6    1
    36     6     8    1
    37     6     7    1
    38     7    20    1
    39     8     9    1
    40     8    13    1
    41     8    14    1
    42     9    10    1
    43    10    11    1
    44    11    13    1
    45    11    21    1
    46    11    12    1
    47    21    22    1
    48    21    28    1
    49    22    23    1
    50    23    24    1
    51    24    25    1
    52    24    30    1
    53    24    26    1
    54    25    29    1
    55    30    31    1
    56    26    27    1
    57    26    28    1
    58    15    16    1
    59    15    17    1
    60    17    18    1
    61    18    19    1
#	Name:			CHEMBL12089
#	Creating user name:	trannguyen
#	Creation time:		Tue Feb  8 18:26:14 2022


#	Modifying user name:	trannguyen
#	Modification time:	Tue Feb  8 18:26:14 2022

@<TRIPOS>MOLECULE
CHEMBL12089
 25 29 0 0 0
SMALL
GASTEIGER

@<TRIPOS>ATOM
      1 C          10.6784   32.6761    7.7534 C.ar    1  UNL1        0.1724
      2 C          10.6439   31.2788    7.8417 C.ar    1  UNL1        0.0400
      3 C           9.4660   30.6141    8.1616 C.ar    1  UNL1        0.0031
      4 C           8.2947   31.3315    8.4134 C.ar    1  UNL1        0.0020
      5 C           7.1206   30.6614    8.7466 C.2     1  UNL1       -0.0021
      6 C           5.9454   31.3667    9.0353 C.3     1  UNL1        0.1177
      7 N           5.9479   32.7210    8.9279 N.pl3   1  UNL1       -0.3004
      8 C           7.0832   33.3896    8.5949 C.2     1  UNL1        0.0649
      9 C           8.2982   32.7327    8.3473 C.ar    1  UNL1        0.0513
     10 C           9.5054   33.4111    8.0230 C.ar    1  UNL1        0.1735
     11 C           4.7211   33.5221    9.1818 C.3     1  UNL1        0.0960
     12 C           3.4547   32.7746    8.7943 C.3     1  UNL1        0.0476
     13 C           3.4614   31.4009    9.4056 C.ar    1  UNL1       -0.0194
     14 C           2.2562   30.7963    9.8067 C.ar    1  UNL1        0.0357
     15 C           2.3146   29.5217   10.3211 C.ar    1  UNL1        0.1761
     16 C           3.5047   28.8525   10.4371 C.ar    1  UNL1        0.1762
     17 C           4.7003   29.4173   10.0441 C.ar    1  UNL1        0.0375
     18 C           4.7020   30.7180    9.4982 C.ar    1  UNL1       -0.0009
     19 O           3.3566   27.6092   10.9647 O.3     1  UNL1       -0.4346
     20 C           1.9249   27.5597   11.1413 C.3     1  UNL1        0.4294
     21 O           1.2618   28.7844   10.7607 O.3     1  UNL1       -0.4346
     22 C          12.8632   33.1778    8.4834 C.3     1  UNL1        0.2526
     23 O          11.8492   33.3381    7.4898 O.3     1  UNL1       -0.4684
     24 O           9.4211   34.7837    8.0757 O.3     1  UNL1       -0.4683
     25 C           9.8989   35.4201    9.2559 C.3     1  UNL1        0.2526
@<TRIPOS>BOND
     1    22    23    1
     2    23     1    1
     3     1     2   ar
     4     1    10   ar
     5     2     3   ar
     6     3     4   ar
     7     4     5    2
     8     4     9   ar
     9     5     6    1
    10     6     7    1
    11     6    18    1
    12     7     8    1
    13     7    11    1
    14     8     9    2
    15     9    10   ar
    16    10    24    1
    17    24    25    1
    18    11    12    1
    19    12    13    1
    20    13    14   ar
    21    13    18   ar
    22    14    15   ar
    23    15    16   ar
    24    15    21    1
    25    16    17   ar
    26    16    19    1
    27    17    18   ar
    28    19    20    1
    29    20    21    1
#	Name:			CHEMBL12131
#	Creating user name:	trannguyen
#	Creation time:		Tue Feb  8 18:26:14 2022


#	Modifying user name:	trannguyen
#	Modification time:	Tue Feb  8 18:26:14 2022

@<TRIPOS>MOLECULE
CHEMBL12131
 32 34 0 0 0
SMALL
GASTEIGER

@<TRIPOS>ATOM
      1 C           9.9634   31.3892    6.5781 C.3     1  UNL1        0.0323
      2 C           9.2296   31.8059    7.8275 C.ar    1  UNL1       -0.0086
      3 C           7.8205   31.8895    7.7685 C.ar    1  UNL1       -0.0051
      4 C           7.0386   32.3232    8.8639 C.ar    1  UNL1        0.0060
      5 C           7.7124   32.6474   10.0434 C.ar    1  UNL1        0.0562
      6 CL          6.8993   33.2202   11.4589 Cl      1  UNL1       -0.0825
      7 C           9.0983   32.5231   10.1239 C.ar    1  UNL1        0.0255
      8 C           9.8757   32.0941    9.0418 C.ar    1  UNL1        0.0473
      9 N          11.2799   31.9576    9.1609 N.am    1  UNL1       -0.2805
     10 C          11.9747   30.7682    9.3024 C.2     1  UNL1        0.2525
     11 O          11.5006   29.6363    9.3019 O.2     1  UNL1       -0.2697
     12 H          11.8474   32.7976    9.0930 H       1  UNL1        0.1552
     13 C          13.4378   30.8590    9.5191 C.ar    1  UNL1        0.0881
     14 C          14.1814   31.4279    8.4693 C.ar    1  UNL1        0.0134
     15 C          15.5578   31.5759    8.5846 C.ar    1  UNL1        0.0308
     16 I          16.6363   32.3887    7.0071 I       1  UNL1       -0.0425
     17 C          16.2081   31.1769    9.7494 C.ar    1  UNL1        0.0146
     18 C          15.4693   30.6220   10.8007 C.ar    1  UNL1        0.0643
     19 I          16.4886   30.0541   12.5352 I       1  UNL1       -0.0394
     20 C          14.0837   30.4525   10.6896 C.ar    1  UNL1        0.1432
     21 O          13.3514   29.9049   11.7118 O.3     1  UNL1       -0.5049
     22 H          13.9360   29.8411   12.4920 H       1  UNL1        0.2922
     23 C           5.5108   32.4151    8.7776 C.3     1  UNL1        0.1365
     24 C           4.7642   31.1669    9.2499 C.ar    1  UNL1       -0.0042
     25 C           5.4231   30.0364    9.7637 C.ar    1  UNL1       -0.0021
     26 C           4.6995   28.9166   10.1889 C.ar    1  UNL1        0.0111
     27 C           3.3110   28.9071   10.0951 C.ar    1  UNL1        0.0577
     28 CL          2.4244   27.5397   10.6463 Cl      1  UNL1       -0.0822
     29 C           2.6381   30.0018    9.5623 C.ar    1  UNL1        0.0111
     30 C           3.3595   31.1232    9.1404 C.ar    1  UNL1       -0.0021
     31 C           5.0434   32.8427    7.4388 C.1     1  UNL1        0.0811
     32 N           4.7035   33.1876    6.3774 N.1     1  UNL1       -0.1952
@<TRIPOS>BOND
     1     1     2    1
     2     2     3   ar
     3     2     8   ar
     4     3     4   ar
     5     4    23    1
     6     4     5   ar
     7    23    31    1
     8    23    24    1
     9    31    32    3
    10    24    25   ar
    11    24    30   ar
    12    25    26   ar
    13    26    27   ar
    14    27    28    1
    15    27    29   ar
    16    29    30   ar
    17     5     6    1
    18     5     7   ar
    19     7     8   ar
    20     8     9    1
    21     9    10   am
    22     9    12    1
    23    10    11    2
    24    10    13    1
    25    13    14   ar
    26    13    20   ar
    27    14    15   ar
    28    15    16    1
    29    15    17   ar
    30    17    18   ar
    31    18    19    1
    32    18    20   ar
    33    20    21    1
    34    21    22    1
#	Name:			CHEMBL1214185
#	Creating user name:	trannguyen
#	Creation time:		Tue Feb  8 18:26:14 2022


#	Modifying user name:	trannguyen
#	Modification time:	Tue Feb  8 18:26:14 2022

@<TRIPOS>MOLECULE
CHEMBL1214185
 63 65 0 0 0
SMALL
GASTEIGER

@<TRIPOS>ATOM
      1 C          10.4330   35.8274   10.3404 C.3     1  UNL1        0.1953
      2 O           9.8392   34.6371    9.7372 O.3     1  UNL1       -0.4497
      3 C           9.7290   33.5848   10.6058 C.2     1  UNL1        0.3188
      4 O           9.9475   33.6252   11.7817 O.2     1  UNL1       -0.2500
      5 C           9.5141   32.2723    9.8750 C.3     1  UNL1        0.1263
      6 C          10.8788   31.6787    9.5145 C.3     1  UNL1        0.0142
      7 C           8.3537   32.2018    8.8430 C.3     1  UNL1        0.1306
      8 C           8.6289   31.7808    7.3533 C.3     1  UNL1        0.0575
      9 C           8.6728   30.2437    7.3066 C.3     1  UNL1        0.0051
     10 C           9.6411   32.6644    6.4696 C.3     1  UNL1        0.1444
     11 C           8.8507   33.4798    5.2791 C.3     1  UNL1        0.1137
     12 C           7.6296   32.7535    4.6748 C.3     1  UNL1        0.0318
     13 O           9.5958   33.7086    4.1103 O.3     1  UNL1       -0.3844
     14 C           8.5194   34.9466    5.7356 C.3     1  UNL1        0.0350
     15 C           9.3826   36.0910    5.0828 C.3     1  UNL1        0.0418
     16 C           8.8952   36.3927    3.6431 C.3     1  UNL1        0.0061
     17 C           9.4109   37.3906    5.9144 C.2     1  UNL1        0.0767
     18 N           8.4355   38.2521    6.0170 N.2     1  UNL1       -0.0887
     19 C          10.6285   37.7937    6.8066 C.3     1  UNL1        0.0686
     20 C          12.0270   37.5507    6.2614 C.3     1  UNL1        0.0087
     21 C          10.3528   37.5770    8.3334 C.3     1  UNL1        0.1435
     22 O           8.9635   37.2815    8.4941 O.3     1  UNL1       -0.3816
     23 C          11.2074   36.5797    9.1875 C.3     1  UNL1        0.1496
     24 C          12.4376   37.2843    9.7945 C.3     1  UNL1        0.0356
     25 O          11.7541   35.5587    8.3239 O.3     1  UNL1       -0.3808
     26 H           9.6801   32.8782    3.6011 H       1  UNL1        0.2103
     27 H           8.4503   37.9468    7.9879 H       1  UNL1        0.2105
     28 H          10.9843   35.0161    8.0799 H       1  UNL1        0.2105
     29 C           9.8570   37.1629   12.4892 C.3     1  UNL1        0.0039
     30 C           9.3684   36.5701   11.1822 C.3     1  UNL1        0.0462
     31 O           7.3790   33.2467    9.0160 O.3     1  UNL1       -0.3323
     32 C           6.4278   33.0956   10.0744 C.3     1  UNL1        0.2375
     33 C           5.0819   33.8408    9.9840 C.3     1  UNL1        0.0910
     34 C           4.0795   33.1846    9.0212 C.3     1  UNL1        0.1246
     35 C           2.6645   33.7646    9.2422 C.3     1  UNL1        0.0324
     36 C           4.0368   31.6550    9.3210 C.3     1  UNL1        0.1623
     37 O           3.2931   30.9724    8.3078 O.3     1  UNL1       -0.3796
     38 C           5.4455   31.0471    9.4347 C.3     1  UNL1        0.1468
     39 C           5.4008   29.6133    9.9445 C.3     1  UNL1        0.0348
     40 O           6.2159   31.7374   10.4020 O.3     1  UNL1       -0.3304
     41 H           3.6971   31.2562    7.4636 H       1  UNL1        0.2105
     42 O           4.4798   33.3379    7.6424 O.3     1  UNL1       -0.3532
     43 C           3.4623   33.6266    6.6901 C.3     1  UNL1        0.1740
     44 O          10.8086   31.8642    6.0768 O.3     1  UNL1       -0.3287
     45 C          12.0993   32.5436    6.0673 C.3     1  UNL1        0.2643
     46 O          12.1888   33.2922    4.8628 O.3     1  UNL1       -0.3311
     47 C          13.1992   34.2972    4.8830 C.3     1  UNL1        0.1194
     48 C          12.9631   35.1716    3.6526 C.3     1  UNL1        0.0322
     49 C          14.5254   33.5802    4.7899 C.3     1  UNL1        0.0482
     50 C          14.6305   32.4740    5.8661 C.3     1  UNL1        0.0921
     51 C          13.3230   31.5833    5.9270 C.3     1  UNL1        0.1815
     52 O          13.4049   30.6388    6.9963 O.3     1  UNL1       -0.3783
     53 H          12.4961   30.3586    7.1939 H       1  UNL1        0.2106
     54 N          15.9048   31.7161    5.7667 N.3     1  UNL1       -0.2692
     55 C          16.6441   31.9286    4.5254 C.3     1  UNL1        0.0897
     56 C          16.7579   31.9522    6.9325 C.3     1  UNL1        0.0897
     57 O           7.2867   37.9080    5.3091 O.2     1  UNL1       -0.3437
     58 C           6.4578   39.0697    5.1966 C.3     1  UNL1        0.3886
     59 O           5.0928   38.7495    5.4774 O.3     1  UNL1       -0.3114
     60 C           4.4162   39.8712    6.0372 C.3     1  UNL1        0.1781
     61 C           3.1496   39.4186    6.7568 C.3     1  UNL1        0.1744
     62 O           3.5126   38.5375    7.8210 O.3     1  UNL1       -0.3484
     63 C           2.4184   37.7299    8.2343 C.3     1  UNL1        0.1742
@<TRIPOS>BOND
     1    29    30    1
     2    30     1    1
     3     1     2    1
     4     1    23    1
     5     2     3    1
     6     3     4    2
     7     3     5    1
     8     5     6    1
     9     5     7    1
    10     7     8    1
    11     7    31    1
    12    31    32    1
    13    32    33    1
    14    32    40    1
    15    33    34    1
    16    34    36    1
    17    34    42    1
    18    34    35    1
    19    42    43    1
    20    36    38    1
    21    36    37    1
    22    37    41    1
    23    38    39    1
    24    38    40    1
    25     8     9    1
    26     8    10    1
    27    10    11    1
    28    10    44    1
    29    45    46    1
    30    45    51    1
    31    45    44    1
    32    46    47    1
    33    47    48    1
    34    47    49    1
    35    49    50    1
    36    50    54    1
    37    50    51    1
    38    54    55    1
    39    54    56    1
    40    51    52    1
    41    52    53    1
    42    11    12    1
    43    11    13    1
    44    11    14    1
    45    13    26    1
    46    14    15    1
    47    15    17    1
    48    15    16    1
    49    17    18    2
    50    17    19    1
    51    18    57    1
    52    57    58    1
    53    58    59    1
    54    59    60    1
    55    60    61    1
    56    61    62    1
    57    62    63    1
    58    19    20    1
    59    19    21    1
    60    21    23    1
    61    21    22    1
    62    22    27    1
    63    23    24    1
    64    23    25    1
    65    25    28    1
#	Name:			CHEMBL1219
#	Creating user name:	trannguyen
#	Creation time:		Tue Feb  8 18:26:14 2022


#	Modifying user name:	trannguyen
#	Modification time:	Tue Feb  8 18:26:14 2022

@<TRIPOS>MOLECULE
CHEMBL1219
 26 28 0 0 0
SMALL
GASTEIGER

@<TRIPOS>ATOM
      1 C           5.6483   31.7425    4.4846 C.ar    1  UNL1        0.1372
      2 C           4.3474   31.3344    4.2088 C.ar    1  UNL1        0.0572
      3 C           3.3559   31.6199    5.1218 C.ar    1  UNL1        0.1016
      4 N           3.5689   32.2654    6.2809 N.ar    1  UNL1       -0.2473
      5 C           4.8434   32.6372    6.5839 C.ar    1  UNL1        0.0708
      6 C           5.9144   32.4367    5.6866 C.ar    1  UNL1        0.0266
      7 C           7.3145   32.8990    5.9950 C.3     1  UNL1        0.0355
      8 O           6.7213   31.4918    3.6617 O.3     1  UNL1       -0.4756
      9 C           6.9437   32.3610    2.5464 C.3     1  UNL1        0.2080
     10 C           7.7087   31.6234    1.4493 C.3     1  UNL1        0.0793
     11 C           7.8778   32.5008    0.2121 C.3     1  UNL1        0.1461
     12 C           7.7580   32.4809   -2.1416 C.3     1  UNL1        0.1741
     13 O           7.5885   31.7236   -0.9513 O.3     1  UNL1       -0.3510
     14 C           4.9881   33.2711    7.9519 C.3     1  UNL1        0.1308
     15 S           6.0237   32.2427    9.0492 S.3     1  UNL1        0.0395
     16 O           6.3168   32.9739   10.4137 O.3     1  UNL1       -0.1532
     17 C           4.8760   31.0022    9.4473 C.ar    1  UNL1        0.1864
     18 N           5.1638   29.7495    9.7505 N.ar    1  UNL1       -0.2201
     19 C           3.9449   29.1413    9.9532 C.ar    1  UNL1        0.0990
     20 C           3.6528   27.8101   10.2739 C.ar    1  UNL1        0.0206
     21 C           2.3127   27.4289   10.4210 C.ar    1  UNL1        0.0016
     22 C           1.2828   28.3611   10.2683 C.ar    1  UNL1        0.0016
     23 C           1.5544   29.7007    9.9552 C.ar    1  UNL1        0.0186
     24 C           2.8958   30.0513    9.8028 C.ar    1  UNL1        0.0760
     25 N           3.5249   31.2249    9.4798 N.ar    1  UNL1       -0.3313
     26 H           3.0833   32.1118    9.2600 H       1  UNL1        0.1679
@<TRIPOS>BOND
     1    12    13    1
     2    13    11    1
     3    11    10    1
     4    10     9    1
     5     9     8    1
     6     8     1    1
     7     1     2   ar
     8     1     6   ar
     9     2     3   ar
    10     3     4   ar
    11     4     5   ar
    12     5    14    1
    13     5     6   ar
    14    14    15    1
    15    15    16    1
    16    15    17    1
    17    17    18   ar
    18    17    25   ar
    19    18    19   ar
    20    19    20   ar
    21    19    24   ar
    22    20    21   ar
    23    21    22   ar
    24    22    23   ar
    25    23    24   ar
    26    24    25   ar
    27    25    26    1
    28     6     7    1
#	Name:			CHEMBL121
#	Creating user name:	trannguyen
#	Creation time:		Tue Feb  8 18:26:14 2022


#	Modifying user name:	trannguyen
#	Modification time:	Tue Feb  8 18:26:14 2022

@<TRIPOS>MOLECULE
CHEMBL121
 26 28 0 0 0
SMALL
GASTEIGER

@<TRIPOS>ATOM
      1 C           6.8602   32.4855    6.8780 C.ar    1  UNL1        0.1386
      2 C           5.5040   32.7346    7.0931 C.ar    1  UNL1        0.0366
      3 C           4.8105   32.0813    8.1200 C.ar    1  UNL1       -0.0011
      4 C           5.4652   31.1570    8.9452 C.ar    1  UNL1       -0.0206
      5 C           6.8370   30.9443    8.7460 C.ar    1  UNL1       -0.0011
      6 C           7.5331   31.6197    7.7361 C.ar    1  UNL1        0.0366
      7 O           7.4275   33.1601    5.8329 O.3     1  UNL1       -0.4736
      8 C           6.5405   33.8983    4.9793 C.3     1  UNL1        0.2267
      9 C           6.6906   33.4156    3.5332 C.3     1  UNL1        0.1396
     10 C           6.4222   30.9574    3.4455 C.3     1  UNL1        0.1137
     11 N           5.7977   32.2669    3.2593 N.pl3   1  UNL1       -0.2879
     12 C           4.4771   32.4109    3.7121 C.ar    1  UNL1        0.1318
     13 C           3.7758   31.3527    4.2991 C.ar    1  UNL1        0.0343
     14 C           2.4776   31.5374    4.7803 C.ar    1  UNL1        0.0045
     15 C           1.8730   32.7730    4.6403 C.ar    1  UNL1        0.0208
     16 C           2.5921   33.7608    4.0027 C.ar    1  UNL1        0.1003
     17 N           3.8526   33.5976    3.5418 N.ar    1  UNL1       -0.2292
     18 C           4.7348   30.4267   10.0557 C.3     1  UNL1        0.0468
     19 C           3.5502   29.5610    9.6052 C.3     1  UNL1        0.1369
     20 S           3.7163   27.8150   10.1293 S.3     1  UNL1       -0.0482
     21 C           2.3225   27.8770   11.1759 C.2     1  UNL1        0.2792
     22 O           1.8889   26.9273   11.7943 O.2     1  UNL1       -0.2625
     23 N           1.7778   29.1200   11.1561 N.am    1  UNL1       -0.2460
     24 C           2.2598   30.0228   10.2593 C.2     1  UNL1        0.2392
     25 O           1.6882   31.0783   10.0103 O.2     1  UNL1       -0.2737
     26 H           0.9055   29.2796   11.6340 H       1  UNL1        0.1583
@<TRIPOS>BOND
     1    10    11    1
     2    11     9    1
     3    11    12    1
     4     9     8    1
     5     8     7    1
     6     7     1    1
     7     1     2   ar
     8     1     6   ar
     9     2     3   ar
    10     3     4   ar
    11     4    18    1
    12     4     5   ar
    13    18    19    1
    14    19    20    1
    15    19    24    1
    16    20    21    1
    17    21    22    2
    18    21    23   am
    19    23    24   am
    20    23    26    1
    21    24    25    2
    22     5     6   ar
    23    12    13   ar
    24    12    17   ar
    25    13    14   ar
    26    14    15   ar
    27    15    16   ar
    28    16    17   ar
#	Name:			CHEMBL1220
#	Creating user name:	trannguyen
#	Creation time:		Tue Feb  8 18:26:14 2022


#	Modifying user name:	trannguyen
#	Modification time:	Tue Feb  8 18:26:14 2022

@<TRIPOS>MOLECULE
CHEMBL1220
 16 16 0 0 0
SMALL
GASTEIGER

@<TRIPOS>ATOM
      1 N           3.1002   31.2247    9.2226 N.ar    1  UNL1       -0.2979
      2 C           1.8559   30.8240    9.6576 C.ar    1  UNL1        0.1743
      3 C           2.0655   29.8317   10.5804 C.ar    1  UNL1        0.1379
      4 N           3.3984   29.5609   10.6845 N.ar    1  UNL1       -0.2277
      5 C           4.0088   30.3735    9.8432 C.ar    1  UNL1        0.1220
      6 C           5.4735   30.3360    9.5897 C.3     1  UNL1        0.0719
      7 N           0.5971   31.3100    9.2063 N.pl3   1  UNL1       -0.1669
      8 O          -0.1341   30.5313    8.5897 O.2     1  UNL1       -0.1711
      9 O           0.3155   32.4746    9.5120 O.co2   1  UNL1       -0.7758
     10 C           3.4471   32.3332    8.3357 C.3     1  UNL1        0.1339
     11 C           3.1669   32.0231    6.8743 C.3     1  UNL1        0.1753
     12 S           4.1908   33.0012    5.7911 S.O2    1  UNL1       -0.0081
     13 O           5.4730   33.1695    6.4664 O.2     1  UNL1       -0.1729
     14 O           3.4375   34.1527    5.3544 O.2     1  UNL1       -0.1729
     15 C           3.2796   31.0588    4.0525 C.3     1  UNL1        0.0271
     16 C           4.4734   31.9325    4.3817 C.3     1  UNL1        0.1510
@<TRIPOS>UNITY_ATOM_ATTR
9 1
charge -1
@<TRIPOS>BOND
     1    15    16    1
     2    16    12    1
     3    12    13    2
     4    12    14    2
     5    12    11    1
     6    11    10    1
     7    10     1    1
     8     1     2   ar
     9     1     5   ar
    10     2     7    1
    11     2     3   ar
    12     7     8    2
    13     7     9    1
    14     3     4   ar
    15     4     5   ar
    16     5     6    1
#	Name:			CHEMBL1221512
#	Creating user name:	trannguyen
#	Creation time:		Tue Feb  8 18:26:14 2022


#	Modifying user name:	trannguyen
#	Modification time:	Tue Feb  8 18:26:14 2022

@<TRIPOS>MOLECULE
CHEMBL1221512
 42 42 0 0 0
SMALL
GASTEIGER

@<TRIPOS>ATOM
      1 C           5.8380   31.9791    9.7127 C.3     1  UNL1        0.1951
      2 C           7.2190   32.3737   10.8048 C.2     1  UNL1        0.2503
      3 O           7.0255   32.6224   12.0258 O.2     1  UNL1       -0.2725
      4 N           8.3889   32.9650   10.2768 N.am    1  UNL1       -0.2948
      5 H           8.1977   33.4264    9.3980 H       1  UNL1        0.1499
      6 C           9.3133   33.7065   11.2010 C.3     1  UNL1        0.1732
      7 C           9.6201   35.3122   11.1275 C.2     1  UNL1        0.3349
      8 O           8.7782   36.1425   11.4607 O.2     1  UNL1       -0.2483
      9 O          10.7628   35.6935   10.4585 O.3     1  UNL1       -0.4512
     10 C          10.7873   35.7951    8.9799 C.3     1  UNL1        0.1691
     11 C          10.4876   37.1910    8.4199 C.3     1  UNL1        0.0473
     12 C          12.1890   35.4074    8.4577 C.3     1  UNL1        0.0473
     13 C          10.5772   32.8431   11.2208 C.3     1  UNL1        0.0564
     14 C          10.9829   32.1135    9.8876 C.3     1  UNL1        0.1532
     15 S          12.0794   30.7560    9.8413 S.O2    1  UNL1       -0.0082
     16 C          13.2447   30.5548    8.6194 C.3     1  UNL1        0.1760
     17 O          12.9058   30.3882   11.0811 O.2     1  UNL1       -0.1729
     18 O          11.1745   29.9916    9.2494 O.2     1  UNL1       -0.1729
     19 C           5.6543   30.4727    9.6359 C.3     1  UNL1        0.0653
     20 C           4.4752   29.5942    9.9637 C.ar    1  UNL1       -0.0192
     21 C           4.5001   28.2234    9.9690 C.ar    1  UNL1       -0.0042
     22 C           3.3451   27.3794   10.0924 C.ar    1  UNL1       -0.0003
     23 C           2.1429   27.8911   10.4478 C.ar    1  UNL1       -0.0000
     24 C           2.0441   29.2361   10.2067 C.ar    1  UNL1       -0.0003
     25 C           3.1762   30.0647    9.9524 C.ar    1  UNL1       -0.0042
     26 O           5.1728   32.3711    8.2316 O.3     1  UNL1       -0.3453
     27 C           4.0350   33.3352    7.6548 C.3     1  UNL1        0.1583
     28 C           3.7268   33.4801    5.9222 C.3     1  UNL1        0.0840
     29 C           2.3766   32.5682    5.5336 C.3     1  UNL1        0.0169
     30 C           1.6483   33.3472    4.4307 C.3     1  UNL1        0.0015
     31 C           2.8024   30.6923    3.4937 C.3     1  UNL1        0.0000
     32 C           2.5601   31.0703    5.0026 C.3     1  UNL1        0.0014
     33 N           4.7118   33.1437    4.7994 N.3     1  UNL1       -0.2954
     34 H           4.7328   32.1356    4.6523 H       1  UNL1        0.1233
     35 C           6.1041   33.6528    4.7587 C.3     1  UNL1        0.0851
     36 C           7.1256   32.5572    4.9047 C.3     1  UNL1        0.0774
     37 N           7.2123   31.7681    6.1154 N.3     1  UNL1       -0.3204
     38 H           7.5830   32.3673    6.8233 H       1  UNL1        0.1189
     39 H           7.8634   30.9806    5.9754 H       1  UNL1        0.1189
     40 C           6.5733   31.5986    4.0171 C.3     1  UNL1        0.0703
     41 S           7.4260   31.9907    2.5832 S.3     1  UNL1       -0.1665
     42 H           8.1097   31.0603    3.2702 H       1  UNL1        0.1023
@<TRIPOS>BOND
     1    31    32    1
     2    29    30    1
     3    29    28    1
     4    29    32    1
     5    28    27    1
     6    28    33    1
     7    27    26    1
     8    26     1    1
     9     1    19    1
    10     1     2    1
    11    19    20    1
    12    20    21   ar
    13    20    25   ar
    14    21    22   ar
    15    22    23   ar
    16    23    24   ar
    17    24    25   ar
    18     2     3    2
    19     2     4   am
    20     4     6    1
    21     4     5    1
    22     6    13    1
    23     6     7    1
    24    13    14    1
    25    14    15    1
    26    15    16    1
    27    15    17    2
    28    15    18    2
    29     7     8    2
    30     7     9    1
    31     9    10    1
    32    10    11    1
    33    10    12    1
    34    33    35    1
    35    33    34    1
    36    35    36    1
    37    36    37    1
    38    36    40    1
    39    37    38    1
    40    37    39    1
    41    40    41    1
    42    41    42    1
#	Name:			CHEMBL1221
#	Creating user name:	trannguyen
#	Creation time:		Tue Feb  8 18:26:14 2022


#	Modifying user name:	trannguyen
#	Modification time:	Tue Feb  8 18:26:14 2022

@<TRIPOS>MOLECULE
CHEMBL1221
 24 26 0 0 0
SMALL
GASTEIGER

@<TRIPOS>ATOM
      1 C           3.7329   32.4758    8.3295 C.3     1  UNL1        0.0935
      2 C           3.3295   31.1872    9.0383 C.ar    1  UNL1        0.0001
      3 C           4.3028   30.2428    9.4277 C.ar    1  UNL1       -0.0017
      4 C           3.9454   29.0882   10.1333 C.ar    1  UNL1        0.0112
      5 C           2.6149   28.8656   10.4720 C.ar    1  UNL1        0.0585
      6 CL          2.1785   27.4700   11.3771 Cl      1  UNL1       -0.0822
      7 C           1.6326   29.7651   10.0797 C.ar    1  UNL1        0.0225
      8 C           1.9825   30.9015    9.3454 C.ar    1  UNL1        0.0554
      9 CL          0.6746   31.9093    8.8333 Cl      1  UNL1       -0.0825
     10 S           5.1535   33.3054    9.1841 S.3     1  UNL1       -0.1298
     11 C           6.4344   33.2353    7.8839 C.3     1  UNL1        0.0841
     12 CL         11.4438   30.0682    9.0340 Cl      1  UNL1       -0.0822
     13 C           9.9856   30.9343    8.7451 C.ar    1  UNL1        0.0577
     14 C           9.6746   32.0459    9.5231 C.ar    1  UNL1        0.0111
     15 C           8.5099   32.7741    9.2635 C.ar    1  UNL1       -0.0025
     16 C           7.6409   32.3945    8.2285 C.ar    1  UNL1       -0.0113
     17 C           7.9700   31.2672    7.4593 C.ar    1  UNL1       -0.0025
     18 C           9.1331   30.5355    7.7201 C.ar    1  UNL1        0.0111
     19 C           4.1015   32.2926    6.8394 C.3     1  UNL1        0.1228
     20 N           3.0694   32.7164    5.9106 N.ar    1  UNL1       -0.3066
     21 C           1.9897   31.9806    5.5053 C.ar    1  UNL1        0.0981
     22 C           1.3370   32.7759    4.5944 C.ar    1  UNL1        0.1193
     23 N           1.9880   33.9731    4.4446 N.ar    1  UNL1       -0.2223
     24 C           3.0220   33.9070    5.2421 C.ar    1  UNL1        0.1786
@<TRIPOS>BOND
     1    12    13    1
     2    13    14   ar
     3    13    18   ar
     4    14    15   ar
     5    15    16   ar
     6    16    11    1
     7    16    17   ar
     8    11    10    1
     9    10     1    1
    10     1    19    1
    11     1     2    1
    12    19    20    1
    13    20    21   ar
    14    20    24   ar
    15    21    22   ar
    16    22    23   ar
    17    23    24   ar
    18     2     3   ar
    19     2     8   ar
    20     3     4   ar
    21     4     5   ar
    22     5     6    1
    23     5     7   ar
    24     7     8   ar
    25     8     9    1
    26    17    18   ar
#	Name:			CHEMBL122
#	Creating user name:	trannguyen
#	Creation time:		Tue Feb  8 18:26:14 2022


#	Modifying user name:	trannguyen
#	Modification time:	Tue Feb  8 18:26:14 2022

@<TRIPOS>MOLECULE
CHEMBL122
 22 24 0 0 0
SMALL
GASTEIGER

@<TRIPOS>ATOM
      1 C           6.1254   32.3667    8.9607 C.2     1  UNL1        0.0275
      2 C           6.4339   32.8243    7.7323 C.2     1  UNL1        0.0752
      3 C           7.3823   33.9437    7.9703 C.2     1  UNL1        0.3413
      4 O           7.8910   34.6567    7.1157 O.2     1  UNL1       -0.2449
      5 O           7.6161   34.0919    9.2992 O.3     1  UNL1       -0.4404
      6 C           6.8870   33.1028   10.0022 C.3     1  UNL1        0.2356
      7 C           3.4344   29.2756   10.2012 C.ar    1  UNL1        0.1057
      8 C           2.9243   30.4723    9.7057 C.ar    1  UNL1        0.0183
      9 C           3.8047   31.4885    9.3355 C.ar    1  UNL1        0.0011
     10 C           5.1952   31.3035    9.3853 C.ar    1  UNL1       -0.0002
     11 C           5.6817   30.0844    9.8900 C.ar    1  UNL1        0.0011
     12 C           4.8094   29.0729   10.2990 C.ar    1  UNL1        0.0183
     13 C           0.7627   28.5671   10.0621 C.3     1  UNL1        0.1816
     14 S           2.3158   27.9932   10.6988 S.O2    1  UNL1        0.0104
     15 O           2.2499   28.0095   12.1476 O.2     1  UNL1       -0.1686
     16 O           2.6865   26.7894    9.9810 O.2     1  UNL1       -0.1686
     17 C           5.9914   32.3954    6.3882 C.ar    1  UNL1        0.0060
     18 C           6.8991   31.8354    5.4749 C.ar    1  UNL1        0.0002
     19 C           6.4846   31.4047    4.2092 C.ar    1  UNL1        0.0000
     20 C           5.1573   31.5503    3.8196 C.ar    1  UNL1        0.0000
     21 C           4.2408   32.1089    4.7024 C.ar    1  UNL1        0.0000
     22 C           4.6498   32.4975    5.9821 C.ar    1  UNL1        0.0002
@<TRIPOS>BOND
     1    13    14    1
     2    14    15    2
     3    14    16    2
     4    14     7    1
     5     7     8   ar
     6     7    12   ar
     7     8     9   ar
     8     9    10   ar
     9    10     1    1
    10    10    11   ar
    11     1     2    2
    12     1     6    1
    13     2    17    1
    14     2     3    1
    15    17    18   ar
    16    17    22   ar
    17    18    19   ar
    18    19    20   ar
    19    20    21   ar
    20    21    22   ar
    21     3     4    2
    22     3     5    1
    23     5     6    1
    24    11    12   ar
#	Name:			CHEMBL1230333
#	Creating user name:	trannguyen
#	Creation time:		Tue Feb  8 18:26:14 2022


#	Modifying user name:	trannguyen
#	Modification time:	Tue Feb  8 18:26:14 2022

@<TRIPOS>MOLECULE
CHEMBL1230333
 12 12 0 0 0
SMALL
GASTEIGER

@<TRIPOS>ATOM
      1 C           0.7209   29.9430    9.3144 C.3     1  UNL1        0.0169
      2 C           1.7546   29.4636   10.3321 C.3     1  UNL1        0.1097
      3 O           1.8901   27.7626   12.0363 O.2     1  UNL1       -0.2503
      4 C           1.2295   28.3305   11.1788 C.2     1  UNL1        0.3138
      5 O          -0.0446   27.9843   10.9011 O.3     1  UNL1       -0.4802
      6 H          -0.4442   28.4738   10.1560 H       1  UNL1        0.2951
      7 C           0.8016   31.4382    8.9839 C.3     1  UNL1        0.0335
      8 C           1.8710   31.7599    7.9786 C.ar    1  UNL1        0.0073
      9 C           1.9834   31.3216    6.6732 C.ar    1  UNL1        0.0027
     10 C           3.1336   31.8504    6.0199 C.ar    1  UNL1        0.0072
     11 C           3.8564   32.6834    6.8434 C.ar    1  UNL1        0.0351
     12 S           3.1563   32.8144    8.3963 S.2     1  UNL1       -0.0908
@<TRIPOS>BOND
     1     3     4    2
     2     4     5    1
     3     4     2    1
     4     5     6    1
     5     2     1    1
     6     1     7    1
     7     7     8    1
     8     8     9   ar
     9     8    12   ar
    10     9    10   ar
    11    10    11   ar
    12    11    12   ar
#	Name:			CHEMBL1230813
#	Creating user name:	trannguyen
#	Creation time:		Tue Feb  8 18:26:14 2022


#	Modifying user name:	trannguyen
#	Modification time:	Tue Feb  8 18:26:14 2022

@<TRIPOS>MOLECULE
CHEMBL1230813
 84 90 0 0 0
SMALL
GASTEIGER

@<TRIPOS>ATOM
      1 C           8.2226   39.1729   -7.9603 C.3     1  UNL1        0.1765
      2 O           8.1982   38.0765   -8.8915 O.3     1  UNL1       -0.3260
      3 C           7.8343   36.8070   -8.3381 C.3     1  UNL1        0.2658
      4 O           8.0141   35.8399   -9.3668 O.3     1  UNL1       -0.3260
      5 C           8.6237   34.5701   -9.0998 C.3     1  UNL1        0.1766
      6 C          10.0916   34.4989   -8.6110 C.3     1  UNL1        0.1765
      7 O          10.2705   33.6960   -7.4240 O.3     1  UNL1       -0.3260
      8 C           9.3655   33.9153   -6.3362 C.3     1  UNL1        0.2658
      9 O           9.6822   32.9335   -5.3497 O.3     1  UNL1       -0.3260
     10 C           9.8842   33.2489   -3.9660 C.3     1  UNL1        0.1766
     11 C          11.0233   34.2362   -3.6713 C.3     1  UNL1        0.1765
     12 O          10.6426   35.5842   -4.0095 O.3     1  UNL1       -0.3260
     13 C           9.5215   36.0470   -3.2575 C.3     1  UNL1        0.2658
     14 O           9.8010   36.1792   -1.8671 O.3     1  UNL1       -0.3260
     15 C          10.8986   37.0252   -1.4720 C.3     1  UNL1        0.1766
     16 C          10.8885   38.4692   -2.0052 C.3     1  UNL1        0.1765
     17 O           9.6011   39.0675   -1.8415 O.3     1  UNL1       -0.3260
     18 C           8.8139   38.6272   -0.7346 C.3     1  UNL1        0.2658
     19 O           7.9455   39.7145   -0.3384 O.3     1  UNL1       -0.3260
     20 C           6.7241   39.8570   -1.1124 C.3     1  UNL1        0.1766
     21 C           6.0392   41.2281   -0.7885 C.3     1  UNL1        0.1765
     22 O           6.6734   42.3978   -1.3763 O.3     1  UNL1       -0.3260
     23 C           7.0558   42.3051   -2.7569 C.3     1  UNL1        0.2658
     24 O           5.9235   42.2488   -3.6200 O.3     1  UNL1       -0.3260
     25 C           5.7771   43.2139   -4.6805 C.3     1  UNL1        0.1766
     26 C           6.8149   43.2158   -5.8306 C.3     1  UNL1        0.1765
     27 O           6.9773   41.8756   -6.3335 O.3     1  UNL1       -0.3260
     28 C           5.8012   41.4004   -7.0078 C.3     1  UNL1        0.2658
     29 O           5.9908   40.1042   -7.6153 O.3     1  UNL1       -0.3260
     30 C           6.9866   39.2613   -7.0158 C.3     1  UNL1        0.1766
     31 C           6.3615   37.8965   -6.6852 C.3     1  UNL1        0.1719
     32 O           7.1163   37.2902   -5.6195 O.3     1  UNL1       -0.3794
     33 C           6.3723   36.9261   -7.8710 C.3     1  UNL1        0.1964
     34 O           5.5125   37.3622   -8.9277 O.3     1  UNL1       -0.3775
     35 C           4.5850   41.4078   -6.0473 C.3     1  UNL1        0.1964
     36 O           3.3625   41.1306   -6.7435 O.3     1  UNL1       -0.3775
     37 C           4.4494   42.7835   -5.3503 C.3     1  UNL1        0.1719
     38 O           3.3962   42.6973   -4.3751 O.3     1  UNL1       -0.3794
     39 C           7.8708   41.0191   -2.9477 C.3     1  UNL1        0.1964
     40 O           8.5074   40.8945   -4.2087 O.3     1  UNL1       -0.3775
     41 C           6.9185   39.8401   -2.6416 C.3     1  UNL1        0.1719
     42 O           7.3159   38.5799   -3.1920 O.3     1  UNL1       -0.3794
     43 C           9.6794   38.1921    0.4745 C.3     1  UNL1        0.1964
     44 O          10.3072   39.3486    1.0643 O.3     1  UNL1       -0.3775
     45 C          10.7930   37.1910    0.0696 C.3     1  UNL1        0.1719
     46 O          10.5882   35.9214    0.7032 O.3     1  UNL1       -0.3794
     47 C           8.2705   35.1548   -3.4195 C.3     1  UNL1        0.1964
     48 O           7.2370   35.6151   -2.5205 O.3     1  UNL1       -0.3775
     49 C           8.6245   33.6808   -3.1898 C.3     1  UNL1        0.1719
     50 O           7.5171   32.8230   -3.4657 O.3     1  UNL1       -0.3794
     51 C           7.8869   33.7770   -6.7882 C.3     1  UNL1        0.1964
     52 O           7.1909   32.7012   -6.1305 O.3     1  UNL1       -0.3775
     53 C           7.7481   33.6004   -8.2997 C.3     1  UNL1        0.1719
     54 O           6.3615   33.6995   -8.6521 O.3     1  UNL1       -0.3794
     55 H           7.0963   37.9008   -4.8482 H       1  UNL1        0.2105
     56 H           5.9743   38.0921   -9.3861 H       1  UNL1        0.2106
     57 H           2.6409   41.3488   -6.1210 H       1  UNL1        0.2106
     58 H           3.8143   42.3813   -3.5498 H       1  UNL1        0.2105
     59 H           7.8752   41.0938   -4.9121 H       1  UNL1        0.2106
     60 H           6.7993   37.8689   -2.7594 H       1  UNL1        0.2105
     61 H           9.6538   40.0730    0.9883 H       1  UNL1        0.2106
     62 H          10.7648   36.0489    1.6530 H       1  UNL1        0.2105
     63 H           7.5499   35.3663   -1.6287 H       1  UNL1        0.2106
     64 H           7.5025   32.6387   -4.4334 H       1  UNL1        0.2105
     65 H           6.3684   32.5697   -6.6487 H       1  UNL1        0.2106
     66 H           6.2803   34.3419   -9.3868 H       1  UNL1        0.2105
     67 O           9.7569   40.4258   -6.5536 O.3     1  UNL1       -0.3794
     68 C           9.5663   39.1848   -7.2150 C.3     1  UNL1        0.1693
     69 H          10.3783   40.2736   -5.8092 H       1  UNL1        0.2105
     70 C          10.8920   35.7969   -8.5051 C.3     1  UNL1        0.1693
     71 O          10.8258   36.5116   -9.7415 O.3     1  UNL1       -0.3794
     72 H          10.7769   35.8406  -10.4497 H       1  UNL1        0.2105
     73 C          12.3127   33.8813   -4.4143 C.3     1  UNL1        0.1693
     74 O          12.3112   32.4896   -4.7361 O.3     1  UNL1       -0.3794
     75 H          12.3018   32.0182   -3.8829 H       1  UNL1        0.2105
     76 C          11.3601   38.6591   -3.4564 C.3     1  UNL1        0.1693
     77 O          11.1458   40.0064   -3.8858 O.3     1  UNL1       -0.3794
     78 H          10.2078   40.2096   -3.6654 H       1  UNL1        0.2105
     79 C           5.9824   41.4877    0.7234 C.3     1  UNL1        0.1693
     80 O           7.1094   42.2702    1.1200 O.3     1  UNL1       -0.3794
     81 H           7.8905   41.7862    0.7865 H       1  UNL1        0.2105
     82 C           8.1947   43.7970   -5.5089 C.3     1  UNL1        0.1693
     83 O           9.1894   43.0513   -6.2106 O.3     1  UNL1       -0.3794
     84 H           9.1849   42.1526   -5.8173 H       1  UNL1        0.2105
@<TRIPOS>BOND
     1    67    68    1
     2    67    69    1
     3    68     1    1
     4     1     2    1
     5     1    30    1
     6     2     3    1
     7     3     4    1
     8     3    33    1
     9     4     5    1
    10     5     6    1
    11     5    53    1
    12     6    70    1
    13     6     7    1
    14    70    71    1
    15    71    72    1
    16     7     8    1
    17     8     9    1
    18     8    51    1
    19     9    10    1
    20    10    11    1
    21    10    49    1
    22    11    73    1
    23    11    12    1
    24    73    74    1
    25    74    75    1
    26    12    13    1
    27    13    14    1
    28    13    47    1
    29    14    15    1
    30    15    16    1
    31    15    45    1
    32    16    76    1
    33    16    17    1
    34    76    77    1
    35    77    78    1
    36    17    18    1
    37    18    19    1
    38    18    43    1
    39    19    20    1
    40    20    21    1
    41    20    41    1
    42    21    79    1
    43    21    22    1
    44    79    80    1
    45    80    81    1
    46    22    23    1
    47    23    24    1
    48    23    39    1
    49    24    25    1
    50    25    26    1
    51    25    37    1
    52    26    82    1
    53    26    27    1
    54    82    83    1
    55    83    84    1
    56    27    28    1
    57    28    29    1
    58    28    35    1
    59    29    30    1
    60    30    31    1
    61    31    33    1
    62    31    32    1
    63    32    55    1
    64    33    34    1
    65    34    56    1
    66    35    36    1
    67    35    37    1
    68    36    57    1
    69    37    38    1
    70    38    58    1
    71    39    40    1
    72    39    41    1
    73    40    59    1
    74    41    42    1
    75    42    60    1
    76    43    44    1
    77    43    45    1
    78    44    61    1
    79    45    46    1
    80    46    62    1
    81    47    48    1
    82    47    49    1
    83    48    63    1
    84    49    50    1
    85    50    64    1
    86    51    52    1
    87    51    53    1
    88    52    65    1
    89    53    54    1
    90    54    66    1
#	Name:			CHEMBL1231107
#	Creating user name:	trannguyen
#	Creation time:		Tue Feb  8 18:26:14 2022


#	Modifying user name:	trannguyen
#	Modification time:	Tue Feb  8 18:26:14 2022

@<TRIPOS>MOLECULE
CHEMBL1231107
 17 18 0 0 0
SMALL
GASTEIGER

@<TRIPOS>ATOM
      1 N          -0.4701   28.6809   10.1995 N.pl3   1  UNL1       -0.3273
      2 C           0.6423   29.3686    9.7555 C.ar    1  UNL1        0.2184
      3 N           1.8161   29.0029   10.2406 N.ar    1  UNL1       -0.1814
      4 C           2.8456   29.6815    9.7667 C.ar    1  UNL1        0.2184
      5 N           4.0997   29.3596   10.2523 N.pl3   1  UNL1       -0.3273
      6 N           2.7689   30.6811    8.9081 N.ar    1  UNL1       -0.1812
      7 C           1.5416   30.9890    8.5024 C.ar    1  UNL1        0.2215
      8 N           0.4432   30.3662    8.9116 N.ar    1  UNL1       -0.1812
      9 H          -0.2805   28.2378   11.0875 H       1  UNL1        0.1452
     10 H          -1.2962   29.2586   10.1334 H       1  UNL1        0.1452
     11 H           4.0206   28.9415   11.1685 H       1  UNL1        0.1452
     12 H           4.7164   30.1552   10.1597 H       1  UNL1        0.1452
     13 N           1.3434   32.0443    7.6010 N.pl3   1  UNL1       -0.3045
     14 H           0.3442   32.0898    7.4316 H       1  UNL1        0.1496
     15 C           2.2556   32.1934    6.4711 C.3     1  UNL1        0.0719
     16 C           2.3331   31.1437    5.3983 C.3     1  UNL1        0.0213
     17 C           1.7211   32.4808    5.0958 C.3     1  UNL1        0.0213
@<TRIPOS>BOND
     1     1     2    1
     2     1     9    1
     3     1    10    1
     4     2     3   ar
     5     2     8   ar
     6     3     4   ar
     7     4     5    1
     8     4     6   ar
     9     5    11    1
    10     5    12    1
    11     6     7   ar
    12     7    13    1
    13     7     8   ar
    14    13    15    1
    15    13    14    1
    16    15    16    1
    17    15    17    1
    18    16    17    1
#	Name:			CHEMBL1231530
#	Creating user name:	trannguyen
#	Creation time:		Tue Feb  8 18:26:14 2022


#	Modifying user name:	trannguyen
#	Modification time:	Tue Feb  8 18:26:14 2022

@<TRIPOS>MOLECULE
CHEMBL1231530
 16 16 0 0 0
SMALL
GASTEIGER

@<TRIPOS>ATOM
      1 N           2.7189   30.4666    8.9251 N.am    1  UNL1       -0.3003
      2 C           2.0225   31.1826    7.9677 C.2     1  UNL1        0.2459
      3 O           0.8501   31.5168    8.0732 O.2     1  UNL1       -0.2701
      4 H           3.7050   30.2994    8.7853 H       1  UNL1        0.1498
      5 C           2.7677   31.5268    6.7297 C.ar    1  UNL1        0.0534
      6 C           3.9997   32.1863    6.7721 C.ar    1  UNL1        0.0045
      7 C           4.7031   32.4186    5.5907 C.ar    1  UNL1        0.0001
      8 C           4.1779   31.9961    4.3698 C.ar    1  UNL1        0.0000
      9 C           2.9411   31.3541    4.3218 C.ar    1  UNL1        0.0001
     10 C           2.2359   31.1138    5.5014 C.ar    1  UNL1        0.0045
     11 C           2.1858   30.0823   10.2239 C.3     1  UNL1        0.1014
     12 C           1.3079   28.8424   10.2438 C.3     1  UNL1        0.1305
     13 O           2.0775   28.0149   12.3718 O.2     1  UNL1       -0.2502
     14 C           1.8810   27.8107   11.1745 C.2     1  UNL1        0.3156
     15 O           2.1706   26.6315   10.5875 O.3     1  UNL1       -0.4801
     16 H           2.1310   26.6865    9.6042 H       1  UNL1        0.2951
@<TRIPOS>BOND
     1    13    14    2
     2    14    15    1
     3    14    12    1
     4    15    16    1
     5    12    11    1
     6    11     1    1
     7     1     2   am
     8     1     4    1
     9     2     3    2
    10     2     5    1
    11     5     6   ar
    12     5    10   ar
    13     6     7   ar
    14     7     8   ar
    15     8     9   ar
    16     9    10   ar
#	Name:			CHEMBL1231
#	Creating user name:	trannguyen
#	Creation time:		Tue Feb  8 18:26:14 2022


#	Modifying user name:	trannguyen
#	Modification time:	Tue Feb  8 18:26:14 2022

@<TRIPOS>MOLECULE
CHEMBL1231
 27 28 0 0 0
SMALL
GASTEIGER

@<TRIPOS>ATOM
      1 C           5.3624   32.6335    4.8685 C.3     1  UNL1        0.1960
      2 O           4.6968   33.9067    4.8941 O.3     1  UNL1       -0.3728
      3 H           5.4032   34.5607    5.0572 H       1  UNL1        0.2114
      4 C           6.1388   32.5081    3.5424 C.ar    1  UNL1        0.0119
      5 C           6.2951   33.6068    2.6770 C.ar    1  UNL1       -0.0015
      6 C           7.0548   33.4933    1.5026 C.ar    1  UNL1       -0.0002
      7 C           7.6660   32.2852    1.1683 C.ar    1  UNL1       -0.0000
      8 C           7.5077   31.1830    1.9981 C.ar    1  UNL1       -0.0002
      9 C           6.7520   31.2943    3.1679 C.ar    1  UNL1       -0.0015
     10 C           4.2852   31.5004    5.0676 C.3     1  UNL1        0.0391
     11 C           3.2714   31.7700    6.2090 C.3     1  UNL1        0.0032
     12 C           2.1649   32.7637    5.8583 C.3     1  UNL1        0.0001
     13 C           1.4061   32.3340    4.6103 C.3     1  UNL1        0.0000
     14 C           2.3343   32.0344    3.4379 C.3     1  UNL1        0.0001
     15 C           3.4885   31.1039    3.8046 C.3     1  UNL1        0.0032
     16 C           6.3632   32.6008    6.0745 C.2     1  UNL1        0.3462
     17 O           7.4430   32.0238    6.0890 O.2     1  UNL1       -0.2471
     18 O           5.8409   33.2930    7.1333 O.3     1  UNL1       -0.4319
     19 C           6.4413   32.9891    8.4021 C.3     1  UNL1        0.2843
     20 C           5.4263   30.8028    9.5249 C.1     1  UNL1       -0.0695
     21 C           5.8512   31.7938    9.0003 C.1     1  UNL1       -0.0424
     22 C           4.9170   29.6130   10.1986 C.3     1  UNL1        0.1499
     23 N           3.4662   29.6709   10.5006 N.3     1  UNL1       -0.2618
     24 C           1.9028   31.6042   10.0161 C.3     1  UNL1        0.0188
     25 C           2.6889   30.4033    9.4862 C.3     1  UNL1        0.0730
     26 C           2.9523   28.3063   10.7321 C.3     1  UNL1        0.0730
     27 C           1.5472   28.2517   11.3236 C.3     1  UNL1        0.0188
@<TRIPOS>BOND
     1    24    25    1
     2    25    23    1
     3    23    26    1
     4    23    22    1
     5    26    27    1
     6    22    20    1
     7    20    21    3
     8    21    19    1
     9    19    18    1
    10    18    16    1
    11    16    17    2
    12    16     1    1
    13     1     2    1
    14     1     4    1
    15     1    10    1
    16     2     3    1
    17     4     5   ar
    18     4     9   ar
    19     5     6   ar
    20     6     7   ar
    21     7     8   ar
    22     8     9   ar
    23    10    11    1
    24    10    15    1
    25    11    12    1
    26    12    13    1
    27    13    14    1
    28    14    15    1
#	Name:			CHEMBL123292
#	Creating user name:	trannguyen
#	Creation time:		Tue Feb  8 18:26:14 2022


#	Modifying user name:	trannguyen
#	Modification time:	Tue Feb  8 18:26:14 2022

@<TRIPOS>MOLECULE
CHEMBL123292
 22 23 0 0 0
SMALL
GASTEIGER

@<TRIPOS>ATOM
      1 C           1.9165   32.0136    8.2016 C.3     1  UNL1        0.1174
      2 O           0.5863   32.1014    8.7127 O.3     1  UNL1       -0.3840
      3 H           0.6388   32.6809    9.5023 H       1  UNL1        0.2104
      4 C           5.6224   30.5991   10.6297 C.3     1  UNL1        0.0000
      5 C           4.9959   29.8518    9.4497 C.3     1  UNL1        0.0009
      6 C           4.1662   28.6470    9.9122 C.3     1  UNL1        0.0073
      7 C           2.8673   29.0536   10.6126 C.3     1  UNL1        0.0577
      8 C           2.0656   27.8146   11.0040 C.3     1  UNL1        0.0078
      9 C           2.0780   29.9801    9.6923 C.2     1  UNL1        0.1522
     10 O           0.8897   29.7860    9.4303 O.2     1  UNL1       -0.2960
     11 C           2.8216   31.2140    9.1737 C.3     1  UNL1        0.0844
     12 C           4.1551   30.7737    8.5496 C.3     1  UNL1        0.0098
     13 C           1.8368   31.3958    6.7922 C.3     1  UNL1        0.0307
     14 C           1.8406   32.4299    5.6333 C.3     1  UNL1        0.0206
     15 C           2.9582   33.4694    5.7203 C.3     1  UNL1        0.0860
     16 C           4.3163   32.8452    5.5129 C.2     1  UNL1        0.2281
     17 O           5.3435   33.3263    5.9890 O.2     1  UNL1       -0.2747
     18 N           4.3625   31.7482    4.6928 N.am    1  UNL1       -0.2553
     19 C           3.3258   31.1873    3.9904 C.2     1  UNL1        0.2281
     20 O           3.5312   30.3320    3.1395 O.2     1  UNL1       -0.2747
     21 C           1.9441   31.7404    4.2659 C.3     1  UNL1        0.0860
     22 H           5.2825   31.3787    4.4970 H       1  UNL1        0.1575
@<TRIPOS>BOND
     1     4     5    1
     2     5     6    1
     3     5    12    1
     4     6     7    1
     5     7     8    1
     6     7     9    1
     7     9    10    2
     8     9    11    1
     9    11    12    1
    10     1     2    1
    11     1    13    1
    12     1    11    1
    13     2     3    1
    14    13    14    1
    15    14    15    1
    16    14    21    1
    17    15    16    1
    18    16    17    2
    19    16    18   am
    20    18    19   am
    21    18    22    1
    22    19    20    2
    23    19    21    1
#	Name:			CHEMBL1235242
#	Creating user name:	trannguyen
#	Creation time:		Tue Feb  8 18:26:14 2022


#	Modifying user name:	trannguyen
#	Modification time:	Tue Feb  8 18:26:14 2022

@<TRIPOS>MOLECULE
CHEMBL1235242
 16 16 0 0 0
SMALL
GASTEIGER

@<TRIPOS>ATOM
      1 N           1.8151   30.6858   11.2813 N.3     1  UNL1       -0.3131
      2 CA          2.0393   29.4105   10.5213 C.3     1  UNL1        0.1553
      3 H1          2.0991   31.4494   10.6557 H       1  UNL1        0.1193
      4 H2          2.4993   30.7332   12.0430 H       1  UNL1        0.1193
      5 C           1.3518   28.2705   11.2923 C.2     1  UNL1        0.3283
      6 O           1.8661   27.6052   12.1821 O.2     1  UNL1       -0.2488
      7 OXT         0.0840   28.0631   10.8500 O.3     1  UNL1       -0.4793
      8 HXT        -0.0458   28.6917   10.0960 H       1  UNL1        0.2951
      9 C           3.5299   29.0900   10.3043 C.3     1  UNL1        0.0532
     10 C           4.2944   30.1865    9.5897 C.ar    1  UNL1       -0.0201
     11 C           3.6494   31.0013    8.6442 C.ar    1  UNL1       -0.0019
     12 C           4.3533   32.0024    7.9724 C.ar    1  UNL1        0.0293
     13 C           5.7011   32.1947    8.2462 C.ar    1  UNL1        0.1401
     14 F           6.3748   33.1555    7.6003 F       1  UNL1       -0.2042
     15 C           6.3585   31.4045    9.1810 C.ar    1  UNL1        0.0293
     16 C           5.6569   30.4001    9.8539 C.ar    1  UNL1       -0.0019
@<TRIPOS>BOND
     1     1     2    1
     2     1     3    1
     3     1     4    1
     4     2     9    1
     5     2     5    1
     6     9    10    1
     7    10    11   ar
     8    10    16   ar
     9    11    12   ar
    10    12    13   ar
    11    13    14    1
    12    13    15   ar
    13    15    16   ar
    14     5     6    2
    15     5     7    1
    16     7     8    1
#	Name:			CHEMBL1236282
#	Creating user name:	trannguyen
#	Creation time:		Tue Feb  8 18:26:14 2022


#	Modifying user name:	trannguyen
#	Modification time:	Tue Feb  8 18:26:14 2022

@<TRIPOS>MOLECULE
CHEMBL1236282
 24 24 0 0 0
SMALL
GASTEIGER

@<TRIPOS>ATOM
      1 C           1.9084   31.8234    7.1499 C.3     1  UNK1        0.1530
      2 O           1.1276   30.6713    6.7914 O.3     1  UNK1       -0.3783
      3 H           0.9752   30.7113    5.8317 H       1  UNK1        0.2109
      4 C           5.1795   32.0363    4.2891 C.ar    1  UNK1        0.1057
      5 C           5.3034   32.6687    5.5269 C.ar    1  UNK1        0.0181
      6 C           4.2455   32.6099    6.4401 C.ar    1  UNK1       -0.0006
      7 C           3.0527   31.9302    6.1393 C.ar    1  UNK1        0.0060
      8 C           2.9513   31.3074    4.8777 C.ar    1  UNK1       -0.0006
      9 C           4.0019   31.3721    3.9528 C.ar    1  UNK1        0.0181
     10 C           7.9460   32.4918    4.1389 C.3     1  UNK1        0.1816
     11 S           6.5340   32.1091    3.1350 S.O2    1  UNK1        0.0104
     12 O           6.2835   33.2222    2.2541 O.2     1  UNK1       -0.1686
     13 O           6.7371   30.7616    2.6074 O.2     1  UNK1       -0.1686
     14 C           2.3145   31.6733    8.6552 C.3     1  UNK1        0.1322
     15 N           1.8969   30.3882    9.2812 N.am    1  UNK1       -0.2992
     16 C           2.6430   29.7164   10.2367 C.2     0  UNK0        0.2531
     17 O           3.7547   30.1251   10.5686 O.2     0  UNK0       -0.2724
     18 H           0.9593   30.0715    9.0623 H       1  UNK1        0.1496
     19 C           1.9901   28.4444   10.8051 C.3     0  UNK0        0.2338
     20 CL          0.2329   28.4883   10.5541 Cl      0  UNK0       -0.0870
     21 CL          2.7031   27.0203   10.0260 Cl      0  UNK0       -0.0870
     22 C           1.8498   32.8777    9.4906 C.3     1  UNK1        0.1594
     23 O           0.4248   32.9866    9.4505 O.3     1  UNK1       -0.3801
     24 H           0.1973   33.2617    8.5457 H       1  UNK1        0.2105
@<TRIPOS>BOND
     1    10    11    1
     2    11    12    2
     3    11    13    2
     4    11     4    1
     5     4     5   ar
     6     4     9   ar
     7     5     6   ar
     8     6     7   ar
     9     7     1    1
    10     7     8   ar
    11     1     2    1
    12     1    14    1
    13     2     3    1
    14    14    22    1
    15    14    15    1
    16    22    23    1
    17    23    24    1
    18    15    16   am
    19    15    18    1
    20    16    17    2
    21    16    19    1
    22    19    20    1
    23    19    21    1
    24     8     9   ar
#	Name:			CHEMBL1237044
#	Creating user name:	trannguyen
#	Creation time:		Tue Feb  8 18:26:14 2022


#	Modifying user name:	trannguyen
#	Modification time:	Tue Feb  8 18:26:14 2022

@<TRIPOS>MOLECULE
CHEMBL1237044
 20 21 0 0 0
SMALL
GASTEIGER

@<TRIPOS>ATOM
      1 C           2.0790   31.9563    8.1782 C.3     1  UNL1        0.1082
      2 O           0.9555   32.1764    7.3029 O.3     1  UNL1       -0.3826
      3 C           2.2035   33.2694    8.9988 C.3     1  UNL1        0.0312
      4 C           3.5025   33.4341    9.7881 C.3     1  UNL1        0.0027
      5 C           4.7345   33.1152    8.9582 C.3     1  UNL1        0.0002
      6 C           4.5964   31.7660    8.2629 C.3     1  UNL1        0.0041
      7 C           3.3793   31.7036    7.3153 C.3     1  UNL1        0.0445
      8 H           0.1676   32.2703    7.8685 H       1  UNL1        0.2107
      9 C           2.2484   28.7229   10.3260 C.ar    1  UNL1        0.1385
     10 C           0.8909   28.4206   10.4624 C.ar    1  UNL1        0.0369
     11 C          -0.0671   29.2500    9.8780 C.ar    1  UNL1        0.0029
     12 C           0.3210   30.3685    9.1476 C.ar    1  UNL1       -0.0018
     13 C           1.6887   30.7007    8.9895 C.ar    1  UNL1        0.0048
     14 C           2.6229   29.8618    9.6225 C.ar    1  UNL1        0.0349
     15 C           4.4732   27.9537   10.1332 C.3     1  UNL1        0.2525
     16 O           3.2747   28.0086   10.8992 O.3     1  UNL1       -0.4714
     17 C           3.4592   32.6585    6.0736 C.3     1  UNL1        0.0748
     18 N           2.7181   32.3079    4.8330 N.3     1  UNL1       -0.2702
     19 C           2.8625   33.3903    3.8498 C.3     1  UNL1        0.0897
     20 C           3.0993   31.0461    4.2124 C.3     1  UNL1        0.0897
@<TRIPOS>BOND
     1    15    16    1
     2    16     9    1
     3     9    10   ar
     4     9    14   ar
     5    10    11   ar
     6    11    12   ar
     7    12    13   ar
     8    13     1    1
     9    13    14   ar
    10     1     2    1
    11     1     3    1
    12     1     7    1
    13     2     8    1
    14     3     4    1
    15     4     5    1
    16     5     6    1
    17     6     7    1
    18     7    17    1
    19    17    18    1
    20    18    19    1
    21    18    20    1
#	Name:			CHEMBL1237061
#	Creating user name:	trannguyen
#	Creation time:		Tue Feb  8 18:26:14 2022


#	Modifying user name:	trannguyen
#	Modification time:	Tue Feb  8 18:26:14 2022

@<TRIPOS>MOLECULE
CHEMBL1237061
 33 36 0 0 0
SMALL
GASTEIGER

@<TRIPOS>ATOM
      1 C           4.0973   31.9308    6.7565 C.ar    1  UNL1        0.0133
      2 C           3.7427   31.9106    5.3772 C.ar    1  UNL1        0.0585
      3 N           4.6272   32.2800    4.4210 N.ar    1  UNL1       -0.2497
      4 C           5.8471   32.6879    4.7327 C.ar    1  UNL1        0.0809
      5 C           6.6280   33.0710    3.6502 C.ar    1  UNL1        0.0191
      6 C           7.9172   33.5631    3.8055 C.ar    1  UNL1        0.0015
      7 C           8.4514   33.6309    5.0754 C.ar    1  UNL1        0.0001
      8 C           7.6920   33.1904    6.1661 C.ar    1  UNL1        0.0015
      9 C           6.3382   32.7408    6.0501 C.ar    1  UNL1        0.0177
     10 C           5.4378   32.3310    7.1216 C.ar    1  UNL1        0.0026
     11 C           5.9440   32.3174    8.5577 C.ar    1  UNL1        0.0002
     12 C           6.4724   31.1598    9.1731 C.ar    1  UNL1        0.0023
     13 C           6.9348   31.1621   10.4990 C.ar    1  UNL1        0.0296
     14 C           7.0008   32.3562   11.1994 C.ar    1  UNL1        0.1401
     15 F           7.5164   32.3761   12.4359 F       1  UNL1       -0.2042
     16 C           6.5338   33.5272   10.6303 C.ar    1  UNL1        0.0296
     17 C           5.9396   33.4815    9.3618 C.ar    1  UNL1        0.0023
     18 C           2.3611   31.5268    4.8150 C.3     1  UNL1        0.0403
     19 C           1.2939   32.6122    4.6639 C.3     1  UNL1        0.0063
     20 C           1.9149   32.0046    3.4461 C.3     1  UNL1        0.0063
     21 C           2.1931   32.2470    8.3960 C.2     1  UNL1        0.0026
     22 C           3.0672   31.4673    7.7323 C.2     1  UNL1       -0.0010
     23 C           1.2659   31.7641    9.4806 C.3     1  UNL1        0.1349
     24 O           0.2211   32.7261    9.6490 O.3     1  UNL1       -0.3800
     25 H           0.6072   33.6052    9.5050 H       1  UNL1        0.2108
     26 C           0.5903   30.4296    9.1527 C.3     1  UNL1        0.0634
     27 C           0.9287   29.3413   10.1706 C.3     1  UNL1        0.1188
     28 O          -0.2671   28.6068   10.4734 O.3     1  UNL1       -0.3840
     29 H          -0.5980   28.2185    9.6454 H       1  UNL1        0.2104
     30 C           1.9334   28.3209    9.6702 C.3     1  UNL1        0.0710
     31 O           2.1034   26.9684   11.6386 O.co2   1  UNL1       -0.5491
     32 C           2.6548   27.3948   10.6171 C.2     1  UNL1        0.0528
     33 O           3.8773   27.1703   10.2464 O.co2   1  UNL1       -0.5491
@<TRIPOS>UNITY_ATOM_ATTR
31 1
charge -1
@<TRIPOS>BOND
     1    31    32   ar
     2    32    33   ar
     3    32    30    1
     4    27    28    1
     5    27    26    1
     6    27    30    1
     7    28    29    1
     8    23    24    1
     9    23    21    1
    10    23    26    1
    11    24    25    1
    12    21    22    2
    13    22     1    1
    14     1     2   ar
    15     1    10   ar
    16     2    18    1
    17     2     3   ar
    18    18    19    1
    19    18    20    1
    20    19    20    1
    21     3     4   ar
    22     4     5   ar
    23     4     9   ar
    24     5     6   ar
    25     6     7   ar
    26     7     8   ar
    27     8     9   ar
    28     9    10   ar
    29    10    11    1
    30    11    12   ar
    31    11    17   ar
    32    12    13   ar
    33    13    14   ar
    34    14    15    1
    35    14    16   ar
    36    16    17   ar
#	Name:			CHEMBL1237
#	Creating user name:	trannguyen
#	Creation time:		Tue Feb  8 18:26:14 2022


#	Modifying user name:	trannguyen
#	Modification time:	Tue Feb  8 18:26:14 2022

@<TRIPOS>MOLECULE
CHEMBL1237
 34 35 0 0 0
SMALL
GASTEIGER

@<TRIPOS>ATOM
      1 CA          2.6171   31.9342    8.7366 C.3     1  UNL1        0.1321
      2 C           1.8654   30.6862    9.3634 C.2     1  UNL1        0.2403
      3 O           0.6646   30.4612    9.2008 O.2     1  UNL1       -0.2734
      4 N           2.6763   29.7631   10.0110 N.am    1  UNL1       -0.2704
      5 CD          4.1026   29.9063   10.2290 C.3     1  UNL1        0.0940
      6 CG          4.6612   28.4982   10.1225 C.3     1  UNL1        0.0238
      7 CB          3.5107   27.6876    9.5186 C.3     1  UNL1        0.0331
      8 CA          2.2713   28.3544   10.1173 C.3     1  UNL1        0.1745
      9 C           2.0138   27.7995   11.5307 C.2     1  UNL1        0.3320
     10 O           1.5256   28.4232   12.4634 O.2     1  UNL1       -0.2485
     11 OXT         2.1896   26.4644   11.6535 O.3     1  UNL1       -0.4790
     12 HXT         1.8850   26.2645   12.5641 H       1  UNL1        0.2951
     13 N           1.9440   32.1384    7.3232 N.3     1  UNL1       -0.2835
     14 H           1.5193   31.2784    7.0066 H       1  UNL1        0.1241
     15 CA          2.7904   32.6731    6.2345 C.3     1  UNL1        0.1548
     16 C           2.0090   32.1602    5.1561 C.2     1  UNL1        0.3282
     17 O           0.8937   32.1848    5.0603 O.2     1  UNL1       -0.2488
     18 OXT         2.9229   31.7245    4.2570 O.3     1  UNL1       -0.4793
     19 HXT         3.0595   32.0348    3.3616 H       1  UNL1        0.2951
     20 C           4.1939   32.1302    5.7277 C.3     1  UNL1        0.0318
     21 C           5.6679   32.7945    6.3422 C.3     1  UNL1        0.0283
     22 C           6.3582   32.6100    7.7813 C.ar    1  UNL1       -0.0221
     23 C           6.9030   31.3566    8.1920 C.ar    1  UNL1       -0.0043
     24 C           7.4348   31.1941    9.4810 C.ar    1  UNL1       -0.0003
     25 C           7.4335   32.2698   10.3703 C.ar    1  UNL1       -0.0000
     26 C           6.7144   33.4239   10.0685 C.ar    1  UNL1       -0.0003
     27 C           6.1351   33.5665    8.8049 C.ar    1  UNL1       -0.0043
     28 CB          2.8264   33.0384    9.9214 C.3     1  UNL1        0.0251
     29 CG          2.6802   34.6618    9.5521 C.3     1  UNL1        0.0033
     30 CD          1.7161   35.7487   10.3197 C.3     1  UNL1        0.0169
     31 NZ         -1.1038   35.9226    9.9830 N.3     1  UNL1       -0.3211
     32 CE         -0.0572   35.2285   10.6251 C.3     1  UNL1        0.0651
     33 HZ1        -1.0265   36.8040   10.4893 H       1  UNL1        0.1189
     34 HZ2        -1.8994   35.4389   10.4364 H       1  UNL1        0.1189
@<TRIPOS>BOND
     1    31    32    1
     2    31    33    1
     3    31    34    1
     4    32    30    1
     5    30    29    1
     6    29    28    1
     7     1    13    1
     8     1     2    1
     9     1    28    1
    10    13    15    1
    11    13    14    1
    12    15    20    1
    13    15    16    1
    14    20    21    1
    15    21    22    1
    16    22    23   ar
    17    22    27   ar
    18    23    24   ar
    19    24    25   ar
    20    25    26   ar
    21    26    27   ar
    22    16    17    2
    23    16    18    1
    24    18    19    1
    25     2     3    2
    26     2     4   am
    27     4     5    1
    28     4     8    1
    29     5     6    1
    30     6     7    1
    31     7     8    1
    32     8     9    1
    33     9    10    2
    34     9    11    1
    35    11    12    1
#	Name:			CHEMBL1243
#	Creating user name:	trannguyen
#	Creation time:		Tue Feb  8 18:26:14 2022


#	Modifying user name:	trannguyen
#	Modification time:	Tue Feb  8 18:26:14 2022

@<TRIPOS>MOLECULE
CHEMBL1243
 22 23 0 0 0
SMALL
GASTEIGER

@<TRIPOS>ATOM
      1 S           4.6732   33.0469    7.4827 S.O2    1  UNL1        0.0759
      2 O           5.7082   33.6846    8.2613 O.2     1  UNL1       -0.1499
      3 O           3.4344   33.7424    7.1876 O.2     1  UNL1       -0.1499
      4 N           6.9347   31.1277    2.3049 N.pl3   1  UNL1       -0.3570
      5 C           6.4211   31.4992    3.5531 C.ar    1  UNL1        0.0416
      6 C           7.2547   32.0810    4.5144 C.ar    1  UNL1        0.0155
      7 C           6.7311   32.5565    5.7207 C.ar    1  UNL1        0.0214
      8 C           5.3528   32.4980    5.9404 C.ar    1  UNL1        0.1253
      9 C           4.5037   31.9701    4.9681 C.ar    1  UNL1        0.0214
     10 C           5.0395   31.5012    3.7677 C.ar    1  UNL1        0.0155
     11 H           7.9099   30.8468    2.3308 H       1  UNL1        0.1424
     12 H           6.3576   30.4468    1.8193 H       1  UNL1        0.1424
     13 N           4.2144   31.6283    8.2156 N.am    1  UNL1       -0.1814
     14 C           3.4830   31.5417    9.4080 C.2     1  UNL1        0.2643
     15 O           3.1752   32.5006   10.0937 O.2     1  UNL1       -0.2686
     16 H           4.6090   30.8104    7.7670 H       1  UNL1        0.1769
     17 C           3.1153   30.1597    9.8145 C.ar    1  UNL1        0.0548
     18 C           1.8018   29.8227   10.1670 C.ar    1  UNL1        0.0046
     19 C           1.4902   28.5105   10.5263 C.ar    1  UNL1        0.0001
     20 C           2.4850   27.5333   10.5356 C.ar    1  UNL1        0.0000
     21 C           3.7965   27.8652   10.1955 C.ar    1  UNL1        0.0001
     22 C           4.1146   29.1772    9.8384 C.ar    1  UNL1        0.0046
@<TRIPOS>BOND
     1     4     5    1
     2     4    11    1
     3     4    12    1
     4     5     6   ar
     5     5    10   ar
     6     6     7   ar
     7     7     8   ar
     8     8     1    1
     9     8     9   ar
    10     1     2    2
    11     1     3    2
    12     1    13    1
    13    13    14   am
    14    13    16    1
    15    14    15    2
    16    14    17    1
    17    17    18   ar
    18    17    22   ar
    19    18    19   ar
    20    19    20   ar
    21    20    21   ar
    22    21    22   ar
    23     9    10   ar
#	Name:			CHEMBL1255834
#	Creating user name:	trannguyen
#	Creation time:		Tue Feb  8 18:26:14 2022


#	Modifying user name:	trannguyen
#	Modification time:	Tue Feb  8 18:26:14 2022

@<TRIPOS>MOLECULE
CHEMBL1255834
 23 25 0 0 0
SMALL
GASTEIGER

@<TRIPOS>ATOM
      1 C           4.5880   29.3233   10.1113 C.ar    1  UNL1       -0.0024
      2 C           5.7854   29.4656   10.7860 C.ar    1  UNL1        0.0681
      3 N           6.2906   30.7106   10.5139 N.ar    1  UNL1       -0.3523
      4 H           7.1612   31.0793   10.8745 H       1  UNL1        0.1660
      5 C           5.4539   31.3902    9.6611 C.ar    1  UNL1        0.0565
      6 C           5.5611   32.6691    9.1055 C.ar    1  UNL1        0.0201
      7 C           4.5302   33.0942    8.2602 C.ar    1  UNL1        0.0384
      8 C           3.4318   32.2805    7.9893 C.ar    1  UNL1        0.1392
      9 C           3.3660   30.9910    8.5251 C.ar    1  UNL1        0.0381
     10 C           4.3816   30.5398    9.3905 C.ar    1  UNL1        0.0161
     11 C           3.6921   28.1161   10.0896 C.3     1  UNL1        0.0434
     12 C           1.2027   28.6885   10.2784 C.3     1  UNL1        0.0172
     13 C           2.4467   28.1771   11.0053 C.3     1  UNL1        0.0553
     14 N           2.1581   26.8958   11.6652 N.3     1  UNL1       -0.3219
     15 H           1.9640   26.1932   10.9497 H       1  UNL1        0.1188
     16 H           1.2968   26.9802   12.2070 H       1  UNL1        0.1188
     17 O           2.4682   32.8288    7.1840 O.3     1  UNL1       -0.4701
     18 C           2.1363   32.0547    6.0256 C.3     1  UNL1        0.2384
     19 C           3.1897   32.3147    4.9921 C.ar    1  UNL1        0.0507
     20 C           4.2029   31.4835    4.5539 C.ar    1  UNL1        0.0063
     21 C           5.0489   32.1154    3.5996 C.ar    1  UNL1        0.0073
     22 C           4.6582   33.4101    3.3436 C.ar    1  UNL1        0.0352
     23 S           3.2776   33.8561    4.2465 S.2     1  UNL1       -0.0871
@<TRIPOS>BOND
     1    12    13    1
     2    13    14    1
     3    13    11    1
     4    14    15    1
     5    14    16    1
     6    11     1    1
     7     1     2   ar
     8     1    10   ar
     9     2     3   ar
    10     3     4    1
    11     3     5   ar
    12     5     6   ar
    13     5    10   ar
    14     6     7   ar
    15     7     8   ar
    16     8    17    1
    17     8     9   ar
    18    17    18    1
    19    18    19    1
    20    19    20   ar
    21    19    23   ar
    22    20    21   ar
    23    21    22   ar
    24    22    23   ar
    25     9    10   ar
#	Name:			CHEMBL1255837
#	Creating user name:	trannguyen
#	Creation time:		Tue Feb  8 18:26:14 2022


#	Modifying user name:	trannguyen
#	Modification time:	Tue Feb  8 18:26:14 2022

@<TRIPOS>MOLECULE
CHEMBL1255837
 48 55 0 0 0
SMALL
GASTEIGER

@<TRIPOS>ATOM
      1 C           7.2803   36.5644   -7.6237 C.3     1  UNL1        0.2253
      2 O           6.5573   37.4786   -6.7839 O.3     1  UNL1       -0.2976
      3 C           7.2849   38.6932   -6.6596 C.3     1  UNL1        0.2754
      4 O           8.0626   38.6450   -5.4791 O.3     1  UNL1       -0.3478
      5 C           6.3855   39.9569   -6.5993 C.3     1  UNL1        0.1465
      6 C           5.0174   39.8348   -5.9192 C.3     1  UNL1        0.0285
      7 C           4.0019   39.9866   -7.0543 C.3     1  UNL1        0.0234
      8 C           4.7100   40.8760   -8.0662 C.3     1  UNL1        0.0937
      9 N           6.0915   40.4789   -7.9293 N.am    1  UNL1       -0.2734
     10 C           7.0836   40.6887   -8.8665 C.2     1  UNL1        0.2444
     11 O           6.9172   41.4157   -9.8396 O.2     1  UNL1       -0.2731
     12 C           8.4430   40.0091   -8.5031 C.3     1  UNL1        0.1604
     13 N           8.2275   38.7394   -7.7384 N.am    1  UNL1       -0.2268
     14 C           8.3821   37.4650   -8.2385 C.2     1  UNL1        0.2719
     15 O           9.2992   37.1054   -8.9590 O.2     1  UNL1       -0.2704
     16 H           8.9812   38.5795   -5.7866 H       1  UNL1        0.2145
     17 N           7.9233   35.5557   -6.7792 N.am    1  UNL1       -0.2790
     18 C           7.2703   34.6378   -5.9865 C.2     1  UNL1        0.2252
     19 O           6.0518   34.5127   -5.9299 O.2     1  UNL1       -0.2750
     20 H           8.9033   35.7119   -6.5829 H       1  UNL1        0.1519
     21 C           8.1929   33.6957   -5.2198 C.3     1  UNL1        0.0928
     22 C           7.8607   33.6987   -3.7182 C.3     1  UNL1        0.0162
     23 C           8.8867   32.8585   -2.9295 C.3     1  UNL1        0.0379
     24 C           8.6221   32.9187   -1.4394 C.ar    1  UNL1       -0.0200
     25 C           7.7188   32.1139   -0.7375 C.ar    1  UNL1       -0.0041
     26 C           7.5382   32.2819    0.6444 C.ar    1  UNL1        0.0012
     27 C           8.2381   33.2592    1.3746 C.ar    1  UNL1        0.0169
     28 C           9.1442   34.0440    0.6602 C.ar    1  UNL1        0.0560
     29 N           9.9879   35.0707    1.0261 N.ar    1  UNL1       -0.3523
     30 H          10.0605   35.4493    1.9602 H       1  UNL1        0.1660
     31 C          10.7204   35.5010   -0.0634 C.ar    1  UNL1        0.0681
     32 C          10.3397   34.7434   -1.1475 C.ar    1  UNL1       -0.0028
     33 C           9.3336   33.8665   -0.6959 C.ar    1  UNL1        0.0092
     34 C          10.7660   34.7059   -2.5795 C.3     1  UNL1        0.0442
     35 C          10.3644   33.3286   -3.2546 C.3     1  UNL1        0.0659
     36 N          10.5744   33.2487   -4.7212 N.3     1  UNL1       -0.2717
     37 C          11.9588   33.4913   -5.1131 C.3     1  UNL1        0.0896
     38 C           9.6500   34.1178   -5.4621 C.3     1  UNL1        0.0812
     39 C           6.9345   34.8427   -9.5272 C.3     1  UNL1        0.0047
     40 C           6.3217   35.9986   -8.7192 C.3     1  UNL1        0.0516
     41 C           5.6807   37.0662   -9.6153 C.3     1  UNL1        0.0047
     42 C           9.4470   39.9994   -9.7014 C.3     1  UNL1        0.0557
     43 C          10.7849   40.7247   -9.6532 C.ar    1  UNL1       -0.0200
     44 C          10.8599   42.0928   -9.9551 C.ar    1  UNL1       -0.0042
     45 C          12.0654   42.7981   -9.8170 C.ar    1  UNL1       -0.0003
     46 C          13.2127   42.1540   -9.3615 C.ar    1  UNL1       -0.0000
     47 C          13.1693   40.7929   -9.1135 C.ar    1  UNL1       -0.0003
     48 C          11.9765   40.0949   -9.3022 C.ar    1  UNL1       -0.0042
@<TRIPOS>BOND
     1    39    40    1
     2    40    41    1
     3     1     2    1
     4     1    14    1
     5     1    40    1
     6     1    17    1
     7    17    18   am
     8    17    20    1
     9    18    19    2
    10    18    21    1
    11    21    22    1
    12    21    38    1
    13    22    23    1
    14    23    24    1
    15    23    35    1
    16    24    25   ar
    17    24    33   ar
    18    25    26   ar
    19    26    27   ar
    20    27    28   ar
    21    28    29   ar
    22    28    33   ar
    23    29    31   ar
    24    29    30    1
    25    31    32   ar
    26    32    33   ar
    27    32    34    1
    28    34    35    1
    29    35    36    1
    30    36    38    1
    31    36    37    1
    32     2     3    1
    33     3     5    1
    34     3    13    1
    35     3     4    1
    36     4    16    1
    37     5     6    1
    38     5     9    1
    39     6     7    1
    40     7     8    1
    41     8     9    1
    42     9    10   am
    43    10    12    1
    44    10    11    2
    45    12    13    1
    46    12    42    1
    47    42    43    1
    48    43    44   ar
    49    43    48   ar
    50    44    45   ar
    51    45    46   ar
    52    46    47   ar
    53    47    48   ar
    54    13    14   am
    55    14    15    2
#	Name:			CHEMBL1255901
#	Creating user name:	trannguyen
#	Creation time:		Tue Feb  8 18:26:14 2022


#	Modifying user name:	trannguyen
#	Modification time:	Tue Feb  8 18:26:14 2022

@<TRIPOS>MOLECULE
CHEMBL1255901
 21 23 0 0 0
SMALL
GASTEIGER

@<TRIPOS>ATOM
      1 C           3.7910   34.6985    9.1256 C.3     1  UNL1        0.0301
      2 C           2.6989   33.6962    9.3098 C.2     1  UNL1       -0.0324
      3 C           2.7961   32.3801    9.0190 C.2     1  UNL1       -0.0279
      4 C           4.0179   31.5367    8.5932 C.3     1  UNL1        0.0466
      5 C           4.5337   32.1344    7.3535 C.2     1  UNL1       -0.0304
      6 C           3.5158   32.3382    6.4736 C.2     1  UNL1       -0.0459
      7 C           3.7373   33.2804    5.3312 C.3     1  UNL1        0.0261
      8 C           2.0162   31.7822    6.8618 C.3     1  UNL1        0.0440
      9 C           1.6585   31.5325    8.5166 C.3     1  UNL1        0.0785
     10 N           0.3218   32.0837    8.7890 N.3     1  UNL1       -0.3169
     11 C           1.8297   30.1433    9.3174 C.ar    1  UNL1        0.0058
     12 C           0.6452   29.3852    9.7371 C.ar    1  UNL1        0.0033
     13 C           0.7287   28.3258   10.5605 C.ar    1  UNL1        0.0603
     14 C           2.0495   27.8476   11.0150 C.ar    1  UNL1        0.2575
     15 O           2.1652   26.8364   11.7141 O.2     1  UNL1       -0.2672
     16 N           3.1175   28.6058   10.6337 N.ar    1  UNL1       -0.3248
     17 H           4.0183   28.2871   10.9688 H       1  UNL1        0.1686
     18 C           3.0283   29.7463    9.8634 C.ar    1  UNL1        0.0342
     19 C           4.3568   30.5076    9.6490 C.3     1  UNL1        0.0518
     20 H           0.2168   32.9797    8.3219 H       1  UNL1        0.1193
     21 H           0.2562   32.2656    9.7897 H       1  UNL1        0.1193
@<TRIPOS>BOND
     1     1     2    1
     2     2     3    2
     3     3     4    1
     4     3     9    1
     5     4     5    1
     6     4    19    1
     7     5     6    2
     8     6     7    1
     9     6     8    1
    10     8     9    1
    11     9    10    1
    12     9    11    1
    13    10    20    1
    14    10    21    1
    15    11    12   ar
    16    11    18   ar
    17    12    13   ar
    18    13    14   ar
    19    14    15    2
    20    14    16   ar
    21    16    17    1
    22    16    18   ar
    23    18    19    1
#	Name:			CHEMBL1256017
#	Creating user name:	trannguyen
#	Creation time:		Tue Feb  8 18:26:14 2022


#	Modifying user name:	trannguyen
#	Modification time:	Tue Feb  8 18:26:14 2022

@<TRIPOS>MOLECULE
CHEMBL1256017
 20 19 0 0 0
SMALL
GASTEIGER

@<TRIPOS>ATOM
      1 C           1.4409   30.4524    8.1175 C.3     1  UNL1        0.0464
      2 C           1.5206   30.5621    9.6436 C.3     1  UNL1        0.1740
      3 N           1.9745   29.2957   10.1898 N.pl3   1  UNL1       -0.2625
      4 H           2.9836   29.2268   10.2649 H       1  UNL1        0.2587
      5 N           1.7514   27.7847   12.0063 N.pl3   1  UNL1       -0.1298
      6 C           1.2963   28.4720   11.0178 C.cat   1  UNL1        0.3769
      7 N          -0.0193   28.4329   10.7336 N.pl3   1  UNL1       -0.2892
      8 H           2.7551   27.9833   12.0814 H       1  UNL1        0.3062
      9 H          -0.5674   28.0712   11.5122 H       1  UNL1        0.2546
     10 H          -0.4159   29.3012   10.3997 H       1  UNL1        0.2546
     11 C           2.2084   31.5839    7.4231 C.3     1  UNL1        0.0464
     12 C           2.0415   31.5432    5.9025 C.3     1  UNL1        0.1740
     13 N           1.6626   32.8375    5.3717 N.pl3   1  UNL1       -0.2625
     14 H           0.7536   33.1811    5.6572 H       1  UNL1        0.2587
     15 C           2.4890   33.7732    4.8641 C.cat   1  UNL1        0.3769
     16 N           2.8279   34.8969    5.3743 N.pl3   1  UNL1       -0.1298
     17 N           2.9955   33.4205    3.6672 N.pl3   1  UNL1       -0.2892
     18 H           2.3957   34.9940    6.2914 H       1  UNL1        0.3062
     19 H           2.2865   33.1541    2.9971 H       1  UNL1        0.2546
     20 H           3.5343   34.2012    3.3000 H       1  UNL1        0.2546
@<TRIPOS>BOND
     1     5     6    2
     2     5     8    1
     3     6     7    1
     4     6     3    1
     5     7     9    1
     6     7    10    1
     7     3     2    1
     8     3     4    1
     9     2     1    1
    10     1    11    1
    11    11    12    1
    12    12    13    1
    13    13    15    1
    14    13    14    1
    15    15    16    2
    16    15    17    1
    17    16    18    1
    18    17    19    1
    19    17    20    1
#	Name:			CHEMBL1261
#	Creating user name:	trannguyen
#	Creation time:		Tue Feb  8 18:26:14 2022


#	Modifying user name:	trannguyen
#	Modification time:	Tue Feb  8 18:26:14 2022

@<TRIPOS>MOLECULE
CHEMBL1261
 17 16 0 0 0
SMALL
GASTEIGER

@<TRIPOS>ATOM
      1 C           2.5864   30.0166    9.9445 C.3     1  UNL1        0.1982
      2 O           1.8852   30.6032   11.0745 O.3     1  UNL1       -0.3756
      3 H           2.3020   31.4780   11.2426 H       1  UNL1        0.2110
      4 C           4.0463   30.5011   10.0801 C.2     1  UNL1        0.3392
      5 O           4.3946   31.5992    9.6553 O.2     1  UNL1       -0.2477
      6 O           4.9230   29.6599   10.6586 O.3     1  UNL1       -0.4786
      7 H           4.6101   28.7345   10.7986 H       1  UNL1        0.2951
      8 C           1.9635   30.5871    8.6624 C.3     1  UNL1        0.1476
      9 O          -0.3953   30.1775    9.0623 O.2     1  UNL1       -0.2502
     10 C           0.5172   30.9550    8.8522 C.2     1  UNL1        0.3168
     11 O           0.2965   32.2729    8.7219 O.3     1  UNL1       -0.4801
     12 H          -0.6678   32.3949    8.8576 H       1  UNL1        0.2951
     13 C           2.4771   28.5040   10.1321 C.3     1  UNL1        0.1476
     14 C           1.5841   28.1341   11.2853 C.2     1  UNL1        0.3168
     15 O           2.0080   27.9329   12.4143 O.2     1  UNL1       -0.2502
     16 O           0.2759   28.0443   10.9716 O.3     1  UNL1       -0.4801
     17 H           0.0959   28.1067   10.0121 H       1  UNL1        0.2951
@<TRIPOS>BOND
     1     9    10    2
     2    10    11    1
     3    10     8    1
     4    11    12    1
     5     8     1    1
     6     1     2    1
     7     1    13    1
     8     1     4    1
     9     2     3    1
    10    13    14    1
    11    14    15    2
    12    14    16    1
    13    16    17    1
    14     4     5    2
    15     4     6    1
    16     6     7    1
#	Name:			CHEMBL1262
#	Creating user name:	trannguyen
#	Creation time:		Tue Feb  8 18:26:14 2022


#	Modifying user name:	trannguyen
#	Modification time:	Tue Feb  8 18:26:14 2022

@<TRIPOS>MOLECULE
CHEMBL1262
 26 28 0 0 0
SMALL
GASTEIGER

@<TRIPOS>ATOM
      1 N           3.0008   32.9409    7.5021 N.2     1  UNL1       -0.0851
      2 C           3.8726   32.2155    8.1435 C.2     1  UNL1        0.1206
      3 C           3.3982   31.0358    8.9602 C.ar    1  UNL1        0.0292
      4 C           4.3435   30.1092    9.4319 C.ar    1  UNL1        0.0030
      5 C           3.9559   29.0076   10.2066 C.ar    1  UNL1        0.0115
      6 C           2.6179   28.8321   10.5372 C.ar    1  UNL1        0.0585
      7 CL          2.1411   27.4833   11.4912 Cl      1  UNL1       -0.0822
      8 C           1.6648   29.7399   10.0940 C.ar    1  UNL1        0.0228
      9 C           2.0430   30.8360    9.3005 C.ar    1  UNL1        0.0598
     10 CL          0.7399   31.8351    8.7556 Cl      1  UNL1       -0.0822
     11 O           3.6050   34.0083    6.8156 O.2     1  UNL1       -0.3726
     12 C           3.2000   33.9752    5.4428 C.3     1  UNL1        0.2659
     13 CL          7.5610   31.2778    2.2478 Cl      1  UNL1       -0.0822
     14 C           6.3087   32.0298    3.1572 C.ar    1  UNL1        0.0585
     15 C           6.4010   33.3814    3.4724 C.ar    1  UNL1        0.0112
     16 C           5.3846   33.9899    4.2121 C.ar    1  UNL1        0.0011
     17 C           4.2610   33.2571    4.6439 C.ar    1  UNL1        0.0346
     18 C           4.1917   31.8931    4.3143 C.ar    1  UNL1        0.0581
     19 CL          2.8687   30.8931    4.7978 Cl      1  UNL1       -0.0824
     20 C           5.2113   31.2830    3.5746 C.ar    1  UNL1        0.0226
     21 C           5.3623   32.5481    8.1354 C.3     1  UNL1        0.1567
     22 N           5.8472   33.0924    9.3963 N.ar    1  UNL1       -0.3019
     23 C           6.9887   32.6849   10.0362 C.ar    1  UNL1        0.0983
     24 C           7.0371   33.4310   11.1908 C.ar    1  UNL1        0.1193
     25 N           5.9572   34.2684   11.2714 N.ar    1  UNL1       -0.2223
     26 C           5.2747   34.0636   10.1697 C.ar    1  UNL1        0.1789
@<TRIPOS>BOND
     1    13    14    1
     2    14    15   ar
     3    14    20   ar
     4    15    16   ar
     5    16    17   ar
     6    17    12    1
     7    17    18   ar
     8    12    11    1
     9    11     1    1
    10     1     2    2
    11     2    21    1
    12     2     3    1
    13    21    22    1
    14    22    23   ar
    15    22    26   ar
    16    23    24   ar
    17    24    25   ar
    18    25    26   ar
    19     3     4   ar
    20     3     9   ar
    21     4     5   ar
    22     5     6   ar
    23     6     7    1
    24     6     8   ar
    25     8     9   ar
    26     9    10    1
    27    18    19    1
    28    18    20   ar
#	Name:			CHEMBL127516
#	Creating user name:	trannguyen
#	Creation time:		Tue Feb  8 18:26:14 2022


#	Modifying user name:	trannguyen
#	Modification time:	Tue Feb  8 18:26:14 2022

@<TRIPOS>MOLECULE
CHEMBL127516
 16 16 0 0 0
SMALL
GASTEIGER

@<TRIPOS>ATOM
      1 C           2.0510   30.5157    8.8462 C.ar    1  UNL1        0.0757
      2 C           0.8699   29.8792    9.2476 C.ar    1  UNL1        0.0077
      3 C           0.9137   28.8737   10.2192 C.ar    1  UNL1        0.0143
      4 C           2.1188   28.5248   10.8349 C.ar    1  UNL1        0.0415
      5 N           2.1720   27.4336   11.7087 N.pl3   1  UNL1       -0.3570
      6 C           3.2987   29.1277   10.3919 C.ar    1  UNL1        0.0143
      7 C           3.2656   30.1360    9.4245 C.ar    1  UNL1        0.0077
      8 H           1.3051   27.2677   12.2103 H       1  UNL1        0.1424
      9 H           2.9756   27.4465   12.3294 H       1  UNL1        0.1424
     10 C           2.0667   31.5805    7.8103 C.2     1  UNL1        0.3412
     11 O           2.5580   32.6877    7.9869 O.2     1  UNL1       -0.2449
     12 O           1.4966   31.1337    6.6677 O.3     1  UNL1       -0.4454
     13 C           2.2979   31.2431    5.4806 C.3     1  UNL1        0.2088
     14 C           1.6165   32.1263    4.4343 C.3     1  UNL1        0.0475
     15 C           3.2492   34.0676    4.3861 C.3     1  UNL1        0.0001
     16 C           2.6452   32.9071    3.6133 C.3     1  UNL1        0.0038
@<TRIPOS>BOND
     1    15    16    1
     2    16    14    1
     3    14    13    1
     4    13    12    1
     5    12    10    1
     6    10    11    2
     7    10     1    1
     8     1     2   ar
     9     1     7   ar
    10     2     3   ar
    11     3     4   ar
    12     4     5    1
    13     4     6   ar
    14     5     8    1
    15     5     9    1
    16     6     7   ar
#	Name:			CHEMBL1276308
#	Creating user name:	trannguyen
#	Creation time:		Tue Feb  8 18:26:14 2022


#	Modifying user name:	trannguyen
#	Modification time:	Tue Feb  8 18:26:14 2022

@<TRIPOS>MOLECULE
CHEMBL1276308
 33 37 0 0 0
SMALL
GASTEIGER

@<TRIPOS>ATOM
      1 C           8.3314   35.0416    9.8551 C.3     1  UNL1        0.1411
      2 O           9.2004   35.0846   11.0141 O.3     1  UNL1       -0.3753
      3 C           9.2581   34.6638    8.6975 C.3     1  UNL1        0.0395
      4 C           9.5563   33.2130    9.0158 C.3     1  UNL1        0.0039
      5 C           8.1586   32.6205    9.2737 C.3     1  UNL1        0.0070
      6 C           7.5287   31.9153    8.0044 C.3     1  UNL1        0.0187
      7 C           8.5207   31.6269    6.8551 C.3     1  UNL1        0.0087
      8 C           7.8123   31.0157    5.6563 C.3     1  UNL1        0.0264
      9 C           6.7837   31.9915    5.1538 C.2     1  UNL1       -0.0239
     10 C           6.6774   32.2652    3.8443 C.2     1  UNL1        0.0329
     11 C           5.6904   33.2478    3.3435 C.2     1  UNL1        0.1731
     12 O           5.6161   33.4704    2.1402 O.2     1  UNL1       -0.2913
     13 C           4.8701   34.0036    4.3556 C.3     1  UNL1        0.0738
     14 C           4.6233   33.1547    5.5962 C.3     1  UNL1        0.0335
     15 C           5.9070   32.5842    6.1683 C.2     1  UNL1       -0.0332
     16 C           6.2182   32.5046    7.4886 C.2     1  UNL1       -0.0450
     17 C           5.2725   32.8767    8.6174 C.3     1  UNL1        0.0403
     18 C           5.9317   34.0311    9.4026 C.3     1  UNL1        0.0116
     19 C           7.3468   33.8082    9.9928 C.3     1  UNL1        0.0342
     20 C           7.1676   33.5621   11.5229 C.3     1  UNL1        0.0034
     21 H           9.7664   35.8696   10.9182 H       1  UNL1        0.2114
     22 C           4.7266   31.6050    9.2822 C.ar    1  UNL1       -0.0187
     23 C           5.5083   30.5559    9.7670 C.ar    1  UNL1       -0.0027
     24 C           4.9433   29.3533   10.2150 C.ar    1  UNL1        0.0142
     25 C           3.5684   29.1174   10.1523 C.ar    1  UNL1        0.0479
     26 C           2.7735   30.1590    9.6681 C.ar    1  UNL1        0.0142
     27 C           3.3376   31.3788    9.2527 C.ar    1  UNL1       -0.0027
     28 N           3.0804   27.8549   10.5162 N.pl3   1  UNL1       -0.3041
     29 C           3.0505   26.8190    9.4897 C.3     1  UNL1        0.1122
     30 C           1.9005   27.9152   11.3797 C.3     1  UNL1        0.1122
     31 C           8.2873   38.9984    9.4230 C.3     1  UNL1        0.0900
     32 C           8.0360   37.5842    9.5718 C.1     1  UNL1       -0.0878
     33 C           7.8288   36.4187    9.6944 C.1     1  UNL1       -0.0657
@<TRIPOS>BOND
     1    31    32    1
     2    32    33    3
     3     1     3    1
     4     1    19    1
     5     1     2    1
     6     1    33    1
     7     2    21    1
     8     3     4    1
     9     4     5    1
    10     5     6    1
    11     5    19    1
    12     6     7    1
    13     6    16    1
    14     7     8    1
    15     8     9    1
    16     9    10    2
    17     9    15    1
    18    10    11    1
    19    11    13    1
    20    11    12    2
    21    13    14    1
    22    14    15    1
    23    15    16    2
    24    16    17    1
    25    17    18    1
    26    17    22    1
    27    22    23   ar
    28    22    27   ar
    29    23    24   ar
    30    24    25   ar
    31    25    28    1
    32    25    26   ar
    33    28    29    1
    34    28    30    1
    35    26    27   ar
    36    18    19    1
    37    19    20    1
#	Name:			CHEMBL127
#	Creating user name:	trannguyen
#	Creation time:		Tue Feb  8 18:26:14 2022


#	Modifying user name:	trannguyen
#	Modification time:	Tue Feb  8 18:26:14 2022

@<TRIPOS>MOLECULE
CHEMBL127
 29 31 0 0 0
SMALL
GASTEIGER

@<TRIPOS>ATOM
      1 C           2.7490   32.1608    8.7298 C.3     1  UNL1        0.1226
      2 C           2.1953   31.7910    7.3517 C.2     1  UNL1        0.2330
      3 O           1.4993   30.8922    6.9444 O.2     1  UNL1       -0.2744
      4 N           3.0119   32.7034    6.7292 N.am    1  UNL1       -0.2539
      5 C           3.8661   32.3017    5.7211 C.2     1  UNL1        0.1317
      6 C           5.1426   32.2278    6.1468 C.2     1  UNL1        0.0244
      7 C           5.2401   32.5834    7.6199 C.3     1  UNL1        0.0487
      8 C           5.7459   31.5042    8.5681 C.3     1  UNL1        0.0070
      9 C           3.8002   33.0074    7.9487 C.3     1  UNL1        0.0954
     10 C           2.3076   34.3038    9.9048 C.3     1  UNL1        0.0323
     11 C           1.8005   32.8881    9.6674 C.3     1  UNL1        0.1208
     12 O           0.5003   32.9688    9.0927 O.3     1  UNL1       -0.3839
     13 H          -0.1244   33.2078    9.8000 H       1  UNL1        0.2104
     14 C           3.3051   32.0119    4.3701 C.2     1  UNL1        0.3521
     15 O           3.0854   32.8024    3.4694 O.2     1  UNL1       -0.2437
     16 O           3.0120   30.7027    4.2225 O.3     1  UNL1       -0.4762
     17 H           2.6265   30.6339    3.3284 H       1  UNL1        0.2954
     18 S           6.5214   31.7147    5.2564 S.3     1  UNL1       -0.1159
     19 C           7.1504   33.2188    4.4186 C.3     1  UNL1        0.0692
     20 C           6.0854   34.1160    3.8008 C.3     1  UNL1        0.0802
     21 N           6.0708   33.8020    2.3687 N.3     1  UNL1       -0.2906
     22 C           7.4866   33.5210    2.0139 C.3     1  UNL1        0.1326
     23 C           8.1411   32.9669    3.2856 C.3     1  UNL1        0.0376
     24 H           5.5602   32.9321    2.2194 H       1  UNL1        0.1237
     25 C           7.5341   32.5446    0.8114 C.2     1  UNL1        0.2400
     26 O           7.5238   31.3238    0.9818 O.2     1  UNL1       -0.2734
     27 N           7.5431   33.1006   -0.4712 N.am    1  UNL1       -0.2750
     28 C           7.6193   32.1811   -1.5937 C.3     1  UNL1        0.1149
     29 C           7.9668   34.4685   -0.7246 C.3     1  UNL1        0.1149
@<TRIPOS>BOND
     1    10    11    1
     2    11    12    1
     3    12    13    1
     4     1     2    1
     5     1     9    1
     6     1    11    1
     7     2     4   am
     8     2     3    2
     9     4     5    1
    10     4     9    1
    11     5     6    2
    12     5    14    1
    13    14    15    2
    14    14    16    1
    15    16    17    1
    16     6     7    1
    17     6    18    1
    18    19    20    1
    19    19    23    1
    20    19    18    1
    21    20    21    1
    22    21    22    1
    23    21    24    1
    24    22    25    1
    25    22    23    1
    26    25    26    2
    27    25    27   am
    28    27    28    1
    29    27    29    1
    30     7     9    1
    31     7     8    1
#	Name:			CHEMBL1282
#	Creating user name:	trannguyen
#	Creation time:		Tue Feb  8 18:26:14 2022


#	Modifying user name:	trannguyen
#	Modification time:	Tue Feb  8 18:26:14 2022

@<TRIPOS>MOLECULE
CHEMBL1282
 20 22 0 0 0
SMALL
GASTEIGER

@<TRIPOS>ATOM
      1 N           1.8250   31.6660    8.0119 N.ar    1  UNL1       -0.3089
      2 C           0.4668   31.4856    8.1003 C.ar    1  UNL1        0.1786
      3 N           0.1475   30.5804    8.9903 N.ar    1  UNL1       -0.2211
      4 C           1.3531   30.1370    9.4924 C.ar    1  UNL1        0.1298
      5 C           1.5884   29.1117   10.4334 C.ar    1  UNL1        0.1446
      6 N           0.5609   28.3593   10.9929 N.pl3   1  UNL1       -0.3414
      7 N           2.8510   28.8419   10.8246 N.ar    1  UNL1       -0.2295
      8 C           3.8824   29.5436   10.3326 C.ar    1  UNL1        0.0842
      9 C           5.1527   29.2199   10.7781 C.ar    1  UNL1        0.0192
     10 C           6.2889   29.9126   10.3516 C.ar    1  UNL1        0.0015
     11 C           6.1595   30.9687    9.4570 C.ar    1  UNL1        0.0001
     12 C           4.8992   31.3154    8.9725 C.ar    1  UNL1        0.0030
     13 C           3.7554   30.5980    9.3896 C.ar    1  UNL1        0.0351
     14 C           2.4281   30.8508    8.9496 C.ar    1  UNL1        0.0831
     15 H          -0.3335   28.8344   10.9407 H       1  UNL1        0.1438
     16 H           0.8381   27.9733   11.8853 H       1  UNL1        0.1438
     17 C           2.4333   32.4141    6.9278 C.3     1  UNL1        0.1075
     18 C           1.3525   32.6395    4.6835 C.3     1  UNL1        0.0020
     19 C           2.3018   31.7846    5.5298 C.3     1  UNL1        0.0227
     20 C           3.6470   31.6606    4.8096 C.3     1  UNL1        0.0020
@<TRIPOS>BOND
     1    18    19    1
     2    19    20    1
     3    19    17    1
     4    17     1    1
     5     1     2   ar
     6     1    14   ar
     7     2     3   ar
     8     3     4   ar
     9     4     5   ar
    10     4    14   ar
    11     5     6    1
    12     5     7   ar
    13     6    15    1
    14     6    16    1
    15     7     8   ar
    16     8     9   ar
    17     8    13   ar
    18     9    10   ar
    19    10    11   ar
    20    11    12   ar
    21    12    13   ar
    22    13    14   ar
#	Name:			CHEMBL12856
#	Creating user name:	trannguyen
#	Creation time:		Tue Feb  8 18:26:14 2022


#	Modifying user name:	trannguyen
#	Modification time:	Tue Feb  8 18:26:14 2022

@<TRIPOS>MOLECULE
CHEMBL12856
 17 18 0 0 0
SMALL
GASTEIGER

@<TRIPOS>ATOM
      1 N          -0.1083   28.4186   10.6446 N.pl3   1  UNL1       -0.3533
      2 C           1.2203   28.7326   10.4122 C.ar    1  UNL1        0.0983
      3 C           1.6497   29.7576    9.6575 C.ar    1  UNL1        0.0204
      4 C           3.0623   30.0434    9.4554 C.ar    1  UNL1        0.0185
      5 C           3.9725   29.2477   10.0444 C.ar    1  UNL1        0.0747
      6 N           3.5823   28.1785   10.8091 N.ar    1  UNL1       -0.3189
      7 H           4.2739   27.5775   11.2397 H       1  UNL1        0.1690
      8 C           2.2730   27.8342   11.0387 C.ar    1  UNL1        0.2706
      9 O           1.9581   26.8417   11.6911 O.2     1  UNL1       -0.2659
     10 H          -0.7170   28.6202    9.8584 H       1  UNL1        0.1425
     11 H          -0.1947   27.4576   10.9845 H       1  UNL1        0.1425
     12 C           3.5369   31.1803    8.6486 C.ar    1  UNL1        0.0046
     13 C           2.7091   31.7452    7.6771 C.ar    1  UNL1        0.0207
     14 C           3.1973   32.8078    6.9356 C.ar    1  UNL1        0.0989
     15 N           4.4324   33.3293    7.0947 N.ar    1  UNL1       -0.2423
     16 C           5.2166   32.7623    8.0359 C.ar    1  UNL1        0.0989
     17 C           4.8207   31.6984    8.8290 C.ar    1  UNL1        0.0207
@<TRIPOS>BOND
     1     1     2    1
     2     1    10    1
     3     1    11    1
     4     2     3   ar
     5     2     8   ar
     6     3     4   ar
     7     4    12    1
     8     4     5   ar
     9    12    13   ar
    10    12    17   ar
    11    13    14   ar
    12    14    15   ar
    13    15    16   ar
    14    16    17   ar
    15     5     6   ar
    16     6     7    1
    17     6     8   ar
    18     8     9    2
#	Name:			CHEMBL1289
#	Creating user name:	trannguyen
#	Creation time:		Tue Feb  8 18:26:14 2022


#	Modifying user name:	trannguyen
#	Modification time:	Tue Feb  8 18:26:14 2022

@<TRIPOS>MOLECULE
CHEMBL1289
 14 14 0 0 0
SMALL
GASTEIGER

@<TRIPOS>ATOM
      1 CL          2.2341   27.5988   11.3247 Cl      1  UNL1       -0.0813
      2 C           2.1913   28.9449   10.2436 C.ar    1  UNL1        0.0692
      3 C           3.4006   29.5623    9.9254 C.ar    1  UNL1        0.0267
      4 C           3.4166   30.6564    9.0566 C.ar    1  UNL1        0.0925
      5 CL          4.9458   31.3850    8.7077 Cl      1  UNL1       -0.0791
      6 C           2.2274   31.1456    8.4890 C.ar    1  UNL1        0.1514
      7 C           1.0199   30.5186    8.8132 C.ar    1  UNL1        0.0501
      8 C           1.0003   29.4246    9.6893 C.ar    1  UNL1        0.0713
      9 CL         -0.5357   28.7157   10.0460 Cl      1  UNL1       -0.0813
     10 O           2.3446   32.2217    7.6496 O.3     1  UNL1       -0.4603
     11 C           2.0321   32.0409    6.2700 C.3     1  UNL1        0.2818
     12 C           3.2807   31.9441    5.5088 C.1     1  UNL1       -0.0334
     13 C           4.3114   31.8865    4.8945 C.1     1  UNL1       -0.0257
     14 I           6.1007   31.8096    3.8461 I       1  UNL1        0.0182
@<TRIPOS>BOND
     1     1     2    1
     2     2     3   ar
     3     2     8   ar
     4     3     4   ar
     5     4     5    1
     6     4     6   ar
     7     6    10    1
     8     6     7   ar
     9    10    11    1
    10    11    12    1
    11    12    13    3
    12    13    14    1
    13     7     8   ar
    14     8     9    1
#	Name:			CHEMBL128
#	Creating user name:	trannguyen
#	Creation time:		Tue Feb  8 18:26:14 2022


#	Modifying user name:	trannguyen
#	Modification time:	Tue Feb  8 18:26:14 2022

@<TRIPOS>MOLECULE
CHEMBL128
 22 23 0 0 0
SMALL
GASTEIGER

@<TRIPOS>ATOM
      1 C           3.6291   29.2281    9.6306 C.ar    1  UNL1        0.0030
      2 C           4.8669   29.0112   10.2498 C.ar    1  UNL1       -0.0010
      3 C           5.8535   30.0006   10.2740 C.ar    1  UNL1        0.0167
      4 C           5.5594   31.2222    9.6614 C.ar    1  UNL1        0.0563
      5 N           6.3160   32.3655    9.5586 N.ar    1  UNL1       -0.3523
      6 H           7.2421   32.4751    9.9464 H       1  UNL1        0.1660
      7 C           5.6273   33.3298    8.8753 C.ar    1  UNL1        0.0681
      8 C           4.4021   32.8097    8.5097 C.ar    1  UNL1       -0.0024
      9 C           4.3455   31.4762    9.0261 C.ar    1  UNL1        0.0128
     10 C           3.3660   30.4627    9.0134 C.ar    1  UNL1       -0.0014
     11 C           2.5812   28.1499    9.6333 C.3     1  UNL1        0.1952
     12 S           1.7368   28.1421   11.2234 S.O2    1  UNL1        0.0451
     13 O           1.8105   29.4596   11.8273 O.2     1  UNL1       -0.1572
     14 O           2.0586   26.9474   11.9675 O.2     1  UNL1       -0.1572
     15 C          -0.4216   29.0254    9.8666 C.3     1  UNL1        0.1099
     16 N           0.1200   27.9823   10.7415 N.3     1  UNL1       -0.1815
     17 H          -0.0390   27.0253   10.4189 H       1  UNL1        0.1485
     18 C           3.3304   33.5146    7.7383 C.3     1  UNL1        0.0452
     19 C           3.4202   33.2361    6.2249 C.3     1  UNL1        0.0769
     20 N           2.2335   32.5579    5.6596 N.3     1  UNL1       -0.2700
     21 C           1.7432   33.2956    4.4906 C.3     1  UNL1        0.0897
     22 C           2.5135   31.1719    5.2843 C.3     1  UNL1        0.0897
@<TRIPOS>BOND
     1    15    16    1
     2    16    12    1
     3    16    17    1
     4    12    13    2
     5    12    14    2
     6    12    11    1
     7    11     1    1
     8     1     2   ar
     9     1    10   ar
    10     2     3   ar
    11     3     4   ar
    12     4     5   ar
    13     4     9   ar
    14     5     6    1
    15     5     7   ar
    16     7     8   ar
    17     8    18    1
    18     8     9   ar
    19    18    19    1
    20    19    20    1
    21    20    21    1
    22    20    22    1
    23     9    10   ar
#	Name:			CHEMBL12948
#	Creating user name:	trannguyen
#	Creation time:		Tue Feb  8 18:26:14 2022


#	Modifying user name:	trannguyen
#	Modification time:	Tue Feb  8 18:26:14 2022

@<TRIPOS>MOLECULE
CHEMBL12948
 17 17 0 0 0
SMALL
GASTEIGER

@<TRIPOS>ATOM
      1 N           2.7600   31.6186    7.7468 N.am    1  UNL1       -0.2890
      2 C           1.9469   31.0793    8.7227 C.2     1  UNL1        0.3253
      3 O           0.7279   31.2227    8.7008 O.2     1  UNL1       -0.2507
      4 N           2.6000   30.3431    9.7169 N.am    1  UNL1       -0.1286
      5 H           3.7609   31.6015    7.8877 H       1  UNL1        0.1510
      6 C           3.5164   32.9942    3.1451 C.3     1  UNL1        0.0000
      7 C           4.1143   32.1631    4.2847 C.3     1  UNL1        0.0001
      8 C           4.4651   33.0285    5.5024 C.3     1  UNL1        0.0017
      9 C           3.2310   33.5363    6.2517 C.3     1  UNL1        0.0196
     10 C           2.2542   32.4144    6.6329 C.3     1  UNL1        0.0731
     11 C           1.9342   31.5037    5.4391 C.3     1  UNL1        0.0196
     12 C           3.1832   31.0174    4.6994 C.3     1  UNL1        0.0017
     13 N           3.9991   30.3264    9.7754 N.2     1  UNL1        0.0534
     14 O           4.5070   31.4166   10.0522 O.2     1  UNL1       -0.1256
     15 C           1.8113   29.6553   10.7419 C.3     1  UNL1        0.1414
     16 C           1.3311   28.2862   10.2788 C.3     1  UNL1        0.1186
     17 CL          2.7088   27.1734   10.0834 Cl      1  UNL1       -0.1118
@<TRIPOS>BOND
     1     6     7    1
     2     7     8    1
     3     7    12    1
     4     8     9    1
     5     9    10    1
     6    10     1    1
     7    10    11    1
     8     1     2   am
     9     1     5    1
    10     2     3    2
    11     2     4   am
    12     4    15    1
    13     4    13    1
    14    15    16    1
    15    16    17    1
    16    13    14    2
    17    11    12    1
#	Name:			CHEMBL1297
#	Creating user name:	trannguyen
#	Creation time:		Tue Feb  8 18:26:14 2022


#	Modifying user name:	trannguyen
#	Modification time:	Tue Feb  8 18:26:14 2022

@<TRIPOS>MOLECULE
CHEMBL1297
 19 20 0 0 0
SMALL
GASTEIGER

@<TRIPOS>ATOM
      1 C           2.4593   29.7026    9.5169 C.ar    1  UNL1       -0.0089
      2 C           1.0748   29.7348    9.7307 C.ar    1  UNL1       -0.0035
      3 C           0.2962   30.7438    9.1670 C.ar    1  UNL1        0.0028
      4 C           0.8852   31.7306    8.3734 C.ar    1  UNL1        0.0375
      5 C           2.2702   31.7708    8.2184 C.ar    1  UNL1        0.1450
      6 C           3.0499   30.7452    8.7771 C.ar    1  UNL1        0.0338
      7 C           4.6370   28.9442   10.5731 C.3     1  UNL1        0.0164
      8 C           3.2844   28.5152    9.9904 C.3     1  UNL1        0.1212
      9 C           2.5145   27.6658   11.0102 C.2     1  UNL1        0.3174
     10 O           2.2633   28.0049   12.1522 O.2     1  UNL1       -0.2499
     11 O           2.1533   26.4439   10.5380 O.3     1  UNL1       -0.4800
     12 H           2.3713   26.3024    9.5978 H       1  UNL1        0.2951
     13 O           2.9585   32.6892    7.4550 O.3     1  UNL1       -0.4535
     14 C           3.5966   32.3349    6.2859 C.ar    1  UNL1        0.1453
     15 C           2.8201   31.6221    5.3645 C.ar    1  UNL1        0.0375
     16 C           3.3773   31.1614    4.1677 C.ar    1  UNL1        0.0031
     17 C           4.7132   31.4263    3.8761 C.ar    1  UNL1        0.0002
     18 C           5.4976   32.1195    4.7972 C.ar    1  UNL1        0.0031
     19 C           4.9512   32.5403    6.0154 C.ar    1  UNL1        0.0375
@<TRIPOS>BOND
     1     7     8    1
     2     8     9    1
     3     8     1    1
     4     9    10    2
     5     9    11    1
     6    11    12    1
     7     1     2   ar
     8     1     6   ar
     9     2     3   ar
    10     3     4   ar
    11     4     5   ar
    12     5    13    1
    13     5     6   ar
    14    13    14    1
    15    14    15   ar
    16    14    19   ar
    17    15    16   ar
    18    16    17   ar
    19    17    18   ar
    20    18    19   ar
#	Name:			CHEMBL129
#	Creating user name:	trannguyen
#	Creation time:		Tue Feb  8 18:26:14 2022


#	Modifying user name:	trannguyen
#	Modification time:	Tue Feb  8 18:26:14 2022

@<TRIPOS>MOLECULE
CHEMBL129
 21 22 0 0 0
SMALL
GASTEIGER

@<TRIPOS>ATOM
      1 C           3.9674   31.2387    8.8739 C.3     1  UNL1        0.2101
      2 C           3.0990   31.7812    7.7457 C.3     1  UNL1        0.0839
      3 C           3.5459   33.2220    7.6480 C.3     1  UNL1        0.1733
      4 C           3.9036   33.5740    9.0946 C.3     1  UNL1        0.1717
      5 O           4.1434   32.3343    9.7950 O.3     1  UNL1       -0.3331
      6 C           0.0155   28.5968   10.3432 C.3     1  UNL1        0.0376
      7 C           1.4867   28.8357   10.2651 C.ar    1  UNL1        0.0515
      8 C           2.0397   29.8664    9.6163 C.ar    1  UNL1        0.0823
      9 N           3.4050   30.0695    9.5522 N.ar    1  UNL1       -0.2574
     10 C           4.2889   29.2264   10.2161 C.ar    1  UNL1        0.3322
     11 O           5.5079   29.3822   10.2380 O.2     1  UNL1       -0.2464
     12 N           3.7200   28.1666   10.8730 N.ar    1  UNL1       -0.2746
     13 H           4.3480   27.5372   11.3479 H       1  UNL1        0.1734
     14 C           2.3870   27.8839   10.9518 C.ar    1  UNL1        0.2584
     15 O           1.9600   26.9069   11.5570 O.2     1  UNL1       -0.2674
     16 N           4.7703   33.2986    6.8170 N.2     1  UNL1       -0.0969
     17 N           4.6184   33.7280    5.6605 N.2     1  UNL1       -0.1663
     18 N           4.4747   34.1226    4.5966 N.2     1  UNL1        0.0678
     19 C           2.7917   34.3373    9.8234 C.3     1  UNL1        0.1688
     20 O           2.1750   33.5366   10.8286 O.3     1  UNL1       -0.3794
     21 H           2.8443   33.4097   11.5264 H       1  UNL1        0.2105
@<TRIPOS>BOND
     1     6     7    1
     2     7     8   ar
     3     7    14   ar
     4     8     9   ar
     5     9     1    1
     6     9    10   ar
     7     1     2    1
     8     1     5    1
     9     2     3    1
    10     3    16    1
    11     3     4    1
    12    16    17    2
    13    17    18    2
    14     4     5    1
    15     4    19    1
    16    19    20    1
    17    20    21    1
    18    10    11    2
    19    10    12   ar
    20    12    13    1
    21    12    14   ar
    22    14    15    2
#	Name:			CHEMBL12
#	Creating user name:	trannguyen
#	Creation time:		Tue Feb  8 18:26:14 2022


#	Modifying user name:	trannguyen
#	Modification time:	Tue Feb  8 18:26:14 2022

@<TRIPOS>MOLECULE
CHEMBL12
 20 22 0 0 0
SMALL
GASTEIGER

@<TRIPOS>ATOM
      1 C           2.2255   28.0004    9.8185 C.3     1  UNL1        0.1201
      2 N           2.0758   29.3989    9.4382 N.am    1  UNL1       -0.2552
      3 C           0.7763   29.9205    9.4734 C.2     1  UNL1        0.2542
      4 O          -0.2060   29.2231    9.7446 O.2     1  UNL1       -0.2724
      5 C           0.6213   31.4204    9.2641 C.3     1  UNL1        0.2104
      6 N           0.9085   31.7463    7.8712 N.2     1  UNL1       -0.2605
      7 C           2.1314   31.6591    7.4691 C.2     1  UNL1        0.0777
      8 C           3.2780   31.3050    8.3563 C.ar    1  UNL1        0.0318
      9 C           4.4361   32.0982    8.2496 C.ar    1  UNL1        0.0141
     10 C           5.5826   31.7591    8.9578 C.ar    1  UNL1        0.0578
     11 CL          6.9983   32.7226    8.8110 Cl      1  UNL1       -0.0822
     12 C           5.5910   30.6363    9.7739 C.ar    1  UNL1        0.0127
     13 C           4.4337   29.8609    9.9020 C.ar    1  UNL1        0.0158
     14 C           3.2460   30.1924    9.2212 C.ar    1  UNL1        0.0554
     15 C           2.3994   31.9413    6.0218 C.ar    1  UNL1        0.0173
     16 C           2.5742   30.9030    5.0977 C.ar    1  UNL1        0.0015
     17 C           2.8226   31.1981    3.7554 C.ar    1  UNL1        0.0000
     18 C           2.8853   32.5253    3.3308 C.ar    1  UNL1        0.0000
     19 C           2.6915   33.5613    4.2437 C.ar    1  UNL1        0.0000
     20 C           2.4435   33.2712    5.5863 C.ar    1  UNL1        0.0015
@<TRIPOS>BOND
     1     1     2    1
     2     2     3   am
     3     2    14    1
     4     3     4    2
     5     3     5    1
     6     5     6    1
     7     6     7    2
     8     7    15    1
     9     7     8    1
    10    15    16   ar
    11    15    20   ar
    12    16    17   ar
    13    17    18   ar
    14    18    19   ar
    15    19    20   ar
    16     8     9   ar
    17     8    14   ar
    18     9    10   ar
    19    10    11    1
    20    10    12   ar
    21    12    13   ar
    22    13    14   ar
#	Name:			CHEMBL1306
#	Creating user name:	trannguyen
#	Creation time:		Tue Feb  8 18:26:14 2022


#	Modifying user name:	trannguyen
#	Modification time:	Tue Feb  8 18:26:14 2022

@<TRIPOS>MOLECULE
CHEMBL1306
 36 40 0 0 0
SMALL
GASTEIGER

@<TRIPOS>ATOM
      1 C           5.5652   32.1780    6.2893 C.3     1  UNL1        0.1909
      2 C           6.8644   32.2710    7.0510 C.3     1  UNL1        0.1783
      3 O           6.5130   32.2351    8.4319 O.3     1  UNL1       -0.3266
      4 C           5.0999   32.5042    8.5268 C.3     1  UNL1        0.2315
      5 O           4.6186   32.7663    7.1872 O.3     1  UNL1       -0.3254
      6 C           4.4202   31.2656    9.1243 C.ar    1  UNL1        0.0410
      7 C           5.2132   30.2494    9.7021 C.ar    1  UNL1        0.0022
      8 C           4.6514   29.0771   10.2119 C.ar    1  UNL1        0.0113
      9 C           3.2807   28.8796   10.1298 C.ar    1  UNL1        0.0585
     10 CL          2.5912   27.4238   10.7322 Cl      1  UNL1       -0.0822
     11 C           2.4656   29.8600    9.5773 C.ar    1  UNL1        0.0226
     12 C           3.0251   31.0552    9.1015 C.ar    1  UNL1        0.0591
     13 CL          1.9001   32.2415    8.5351 Cl      1  UNL1       -0.0824
     14 C           5.6132   32.9810    4.9977 C.3     1  UNL1        0.2374
     15 O           6.9517   33.3874    4.6785 O.3     1  UNL1       -0.4727
     16 C           8.0634   32.8287    0.6331 C.ar    1  UNL1        0.0481
     17 C           7.7381   31.7386    1.4453 C.ar    1  UNL1        0.0176
     18 C           7.3849   31.8961    2.7889 C.ar    1  UNL1        0.0382
     19 C           7.2978   33.1597    3.3694 C.ar    1  UNL1        0.1388
     20 C           7.5872   34.2664    2.5836 C.ar    1  UNL1        0.0382
     21 C           7.9450   34.0987    1.2343 C.ar    1  UNL1        0.0176
     22 N           9.3408   33.6665   -3.4105 N.3     1  UNL1       -0.2711
     23 C          10.2341   32.8714   -2.5309 C.3     1  UNL1        0.0938
     24 C           9.9070   32.9215   -1.0203 C.3     1  UNL1        0.1081
     25 N           8.4773   32.6823   -0.7098 N.pl3   1  UNL1       -0.3046
     26 C           7.4937   33.1885   -1.6965 C.3     1  UNL1        0.1081
     27 C           7.9825   33.1456   -3.1578 C.3     1  UNL1        0.0938
     28 C          10.8594   35.5987   -3.7552 C.3     1  UNL1        0.0173
     29 C           9.4881   35.1316   -3.2328 C.3     1  UNL1        0.0577
     30 C           8.4232   35.9658   -3.9725 C.3     1  UNL1        0.0173
     31 C           4.8733   33.8085    9.3212 C.3     1  UNL1        0.1897
     32 N           6.1067   34.3661    9.8358 N.ar    1  UNL1       -0.2246
     33 C           6.7520   34.0310   10.9870 C.ar    1  UNL1        0.1974
     34 N           7.8926   34.7111   11.0516 N.ar    1  UNL1       -0.2007
     35 C           7.8664   35.4606    9.9162 C.ar    1  UNL1        0.2210
     36 N           6.7691   35.3191    9.1570 N.ar    1  UNL1       -0.1450
@<TRIPOS>BOND
     1    28    29    1
     2    29    30    1
     3    29    22    1
     4    22    23    1
     5    22    27    1
     6    23    24    1
     7    24    25    1
     8    25    16    1
     9    25    26    1
    10    16    17   ar
    11    16    21   ar
    12    17    18   ar
    13    18    19   ar
    14    19    15    1
    15    19    20   ar
    16    15    14    1
    17    14     1    1
    18     1     2    1
    19     1     5    1
    20     2     3    1
    21     3     4    1
    22     4    31    1
    23     4     6    1
    24     4     5    1
    25    31    32    1
    26    32    33   ar
    27    32    36   ar
    28    33    34   ar
    29    34    35   ar
    30    35    36   ar
    31     6     7   ar
    32     6    12   ar
    33     7     8   ar
    34     8     9   ar
    35     9    10    1
    36     9    11   ar
    37    11    12   ar
    38    12    13    1
    39    20    21   ar
    40    26    27    1
#	Name:			CHEMBL1308
#	Creating user name:	trannguyen
#	Creation time:		Tue Feb  8 18:26:14 2022


#	Modifying user name:	trannguyen
#	Modification time:	Tue Feb  8 18:26:14 2022

@<TRIPOS>MOLECULE
CHEMBL1308
 7 7 0 0 0
SMALL
GASTEIGER

@<TRIPOS>ATOM
      1 C           4.5549   28.4698    9.9893 C.3     1  UNL1        0.0343
      2 C           3.1473   28.5933   10.4265 C.ar    1  UNL1        0.0175
      3 C           2.3174   27.5974   10.9895 C.ar    1  UNL1        0.1171
      4 N           1.0934   28.0484   11.2738 N.ar    1  UNL1       -0.1714
      5 N           1.1342   29.3348   10.8939 N.ar    1  UNL1       -0.2746
      6 H           0.2998   29.8992   11.0159 H       1  UNL1        0.1890
      7 C           2.3402   29.7095   10.3790 C.ar    1  UNL1        0.0881
@<TRIPOS>BOND
     1     1     2    1
     2     2     3   ar
     3     2     7   ar
     4     3     4   ar
     5     4     5   ar
     6     5     6    1
     7     5     7   ar
#	Name:			CHEMBL130
#	Creating user name:	trannguyen
#	Creation time:		Tue Feb  8 18:26:14 2022


#	Modifying user name:	trannguyen
#	Modification time:	Tue Feb  8 18:26:14 2022

@<TRIPOS>MOLECULE
CHEMBL130
 23 23 0 0 0
SMALL
GASTEIGER

@<TRIPOS>ATOM
      1 C           2.4132   31.6527    7.2632 C.3     1  UNL1        0.1530
      2 O           1.0726   32.0799    6.9588 O.3     1  UNL1       -0.3783
      3 H           0.5401   31.2731    6.8420 H       1  UNL1        0.2109
      4 C           2.3218   30.6267    8.3886 C.ar    1  UNL1        0.0060
      5 C           3.4743   30.2396    9.1005 C.ar    1  UNL1       -0.0003
      6 C           3.4027   29.2810   10.1207 C.ar    1  UNL1        0.0196
      7 C           2.1607   28.7293   10.4418 C.ar    1  UNL1        0.0918
      8 C           1.0003   29.0969    9.7624 C.ar    1  UNL1        0.0196
      9 C           1.0903   30.0294    8.7247 C.ar    1  UNL1       -0.0003
     10 N           2.0776   27.7330   11.4939 N.pl3   1  UNL1       -0.1853
     11 O           2.3290   26.5635   11.1845 O.2     1  UNL1       -0.1725
     12 O           1.7528   28.1308   12.6250 O.co2   1  UNL1       -0.7770
     13 CA          3.2598   32.9199    7.5899 C.3     1  UNL1        0.1322
     14 O           3.8514   33.5598   10.3175 O.2     1  UNL1       -0.2724
     15 C           2.9242   34.1685    9.7771 C.2     1  UNL1        0.2531
     16 N           2.5464   33.8751    8.4776 N.am    1  UNL1       -0.2992
     17 H           1.8892   34.4883    8.0099 H       1  UNL1        0.1496
     18 C           2.0692   35.2383   10.4723 C.3     1  UNL1        0.2338
     19 CL          2.0999   36.7087    9.4730 Cl      1  UNL1       -0.0870
     20 CL          0.4069   34.6707   10.7065 Cl      1  UNL1       -0.0870
     21 C           3.8132   33.5987    6.3237 C.3     1  UNL1        0.1594
     22 O           2.8745   34.5519    5.8222 O.3     1  UNL1       -0.3801
     23 H           2.1321   34.0348    5.4599 H       1  UNL1        0.2105
@<TRIPOS>UNITY_ATOM_ATTR
12 1
charge -1
@<TRIPOS>BOND
     1    14    15    2
     2    15    16   am
     3    15    18    1
     4    16    17    1
     5    13    21    1
     6    13    16    1
     7    21    22    1
     8    22    23    1
     9     1     2    1
    10     1     4    1
    11     1    13    1
    12     2     3    1
    13     4     5   ar
    14     4     9   ar
    15     5     6   ar
    16     6     7   ar
    17     7    10    1
    18     7     8   ar
    19    10    11    2
    20    10    12    1
    21     8     9   ar
    22    18    19    1
    23    18    20    1
#	Name:			CHEMBL1319362
#	Creating user name:	trannguyen
#	Creation time:		Tue Feb  8 18:26:14 2022


#	Modifying user name:	trannguyen
#	Modification time:	Tue Feb  8 18:26:14 2022

@<TRIPOS>MOLECULE
CHEMBL1319362
 21 23 0 0 0
SMALL
GASTEIGER

@<TRIPOS>ATOM
      1 C           1.1841   31.5592    8.7303 C.2     1  UNL1        0.3484
      2 O           0.0130   31.2309    8.8560 O.2     1  UNL1       -0.2470
      3 C           2.1666   31.4001    9.8692 C.3     1  UNL1        0.2324
      4 O           1.5984   31.8179   11.0852 O.3     1  UNL1       -0.3705
      5 H           0.7687   31.2939   11.2277 H       1  UNL1        0.2114
      6 C           2.7933   30.0178    9.9452 C.ar    1  UNL1        0.0151
      7 C           4.1827   29.8342    9.7955 C.ar    1  UNL1       -0.0014
      8 C           4.7367   28.5525    9.8628 C.ar    1  UNL1       -0.0002
      9 C           3.9179   27.4445   10.0902 C.ar    1  UNL1       -0.0000
     10 C           2.5403   27.6134   10.2365 C.ar    1  UNL1       -0.0002
     11 C           1.9786   28.8894   10.1531 C.ar    1  UNL1       -0.0014
     12 O           1.6244   32.1681    7.6097 O.3     1  UNL1       -0.4503
     13 C           4.5768   31.1280    4.0166 C.3     1  UNL1        0.0896
     14 N           3.8154   32.3887    4.0719 N.3     1  UNL1       -0.2738
     15 C           4.0978   33.3004    5.1947 C.3     1  UNL1        0.0611
     16 C           3.1015   34.4259    4.9594 C.3     1  UNL1        0.0175
     17 C           1.9088   33.7290    4.2890 C.3     1  UNL1        0.0175
     18 C           2.3533   32.2682    4.1430 C.3     1  UNL1        0.0611
     19 C           1.9387   31.3677    5.3375 C.3     1  UNL1        0.0596
     20 C           2.5747   31.7753    6.6836 C.3     1  UNL1        0.1716
     21 C           3.8786   32.6116    6.5741 C.3     1  UNL1        0.0596
@<TRIPOS>BOND
     1    13    14    1
     2    14    15    1
     3    14    18    1
     4    15    16    1
     5    15    21    1
     6    16    17    1
     7    17    18    1
     8    18    19    1
     9    19    20    1
    10    20    21    1
    11    20    12    1
    12    12     1    1
    13     1     2    2
    14     1     3    1
    15     3     4    1
    16     3     6    1
    17     4     5    1
    18     6     7   ar
    19     6    11   ar
    20     7     8   ar
    21     8     9   ar
    22     9    10   ar
    23    10    11   ar
#	Name:			CHEMBL131
#	Creating user name:	trannguyen
#	Creation time:		Tue Feb  8 18:26:14 2022


#	Modifying user name:	trannguyen
#	Modification time:	Tue Feb  8 18:26:14 2022

@<TRIPOS>MOLECULE
CHEMBL131
 29 32 0 0 0
SMALL
GASTEIGER

@<TRIPOS>ATOM
      1 C           2.5995   32.9931    9.7785 C.3     1  UNL1        0.0028
      2 C           3.0200   31.5908    9.3060 C.3     1  UNL1        0.0313
      3 C           3.2475   31.6130    7.7786 C.3     1  UNL1        0.0319
      4 C           4.5593   32.2719    7.3118 C.3     1  UNL1        0.1111
      5 O           4.5832   32.1295    5.8904 O.3     1  UNL1       -0.3844
      6 C           5.8081   31.6197    7.9464 C.3     1  UNL1        0.0341
      7 C           5.6650   31.6176    9.4957 C.3     1  UNL1        0.0033
      8 C           5.9625   32.9962   10.1466 C.3     1  UNL1        0.0045
      9 C           6.8907   33.8959    9.3364 C.3     1  UNL1        0.0224
     10 C           7.8578   33.0228    8.6026 C.2     1  UNL1       -0.0378
     11 C           9.1390   32.9309    8.9994 C.2     1  UNL1        0.0338
     12 C          10.0409   31.9056    8.4359 C.2     1  UNL1        0.1948
     13 O          11.2298   31.8733    8.7209 O.2     1  UNL1       -0.2866
     14 C           9.4258   30.8757    7.5730 C.2     1  UNL1        0.0377
     15 C           8.1523   30.9873    7.1688 C.2     1  UNL1       -0.0197
     16 C           7.2369   32.1694    7.4933 C.3     1  UNL1        0.0361
     17 C           7.2221   33.0282    6.2102 C.3     1  UNL1        0.0085
     18 C           4.3147   31.0599    9.9953 C.3     1  UNL1        0.0029
     19 C           4.2104   29.5219    9.8343 C.3     1  UNL1        0.0029
     20 C           2.7235   29.1928    9.6352 C.3     1  UNL1        0.0342
     21 C           1.9949   30.5244    9.8169 C.3     1  UNL1        0.1413
     22 O           1.8618   30.6986   11.2555 O.3     1  UNL1       -0.3797
     23 H           4.5945   31.1825    5.6706 H       1  UNL1        0.2103
     24 H           0.9985   30.3075   11.5079 H       1  UNL1        0.2108
     25 C           0.5400   30.4698    9.3067 C.2     1  UNL1        0.2038
     26 O          -0.0107   31.5156    8.9270 O.2     1  UNL1       -0.2910
     27 C          -0.2368   29.1730    9.2677 C.3     1  UNL1        0.2044
     28 O          -0.5315   28.7159   10.5731 O.3     1  UNL1       -0.3749
     29 H           0.3230   28.5465   11.0143 H       1  UNL1        0.2110
@<TRIPOS>BOND
     1     2     3    1
     2     2    18    1
     3     2    21    1
     4     2     1    1
     5     3     4    1
     6     4     6    1
     7     4     5    1
     8     5    23    1
     9     6     7    1
    10     6    16    1
    11     7     8    1
    12     7    18    1
    13     8     9    1
    14     9    10    1
    15    10    11    2
    16    10    16    1
    17    11    12    1
    18    12    14    1
    19    12    13    2
    20    14    15    2
    21    15    16    1
    22    16    17    1
    23    18    19    1
    24    19    20    1
    25    20    21    1
    26    21    22    1
    27    21    25    1
    28    22    24    1
    29    25    26    2
    30    25    27    1
    31    27    28    1
    32    28    29    1
#	Name:			CHEMBL13209
#	Creating user name:	trannguyen
#	Creation time:		Tue Feb  8 18:26:14 2022


#	Modifying user name:	trannguyen
#	Modification time:	Tue Feb  8 18:26:14 2022

@<TRIPOS>MOLECULE
CHEMBL13209
 22 24 0 0 0
SMALL
GASTEIGER

@<TRIPOS>ATOM
      1 O           7.0835   34.5106    9.9238 O.2     1  UNL1       -0.2726
      2 C           6.1565   33.9802    9.3095 C.2     1  UNL1        0.2509
      3 C           4.7104   34.0834    9.7603 C.3     1  UNL1        0.2101
      4 N           4.1648   32.7614   10.0378 N.2     1  UNL1       -0.2605
      5 C           3.9719   31.9305    9.0708 C.2     1  UNL1        0.0777
      6 C           4.2684   32.2192    7.6330 C.ar    1  UNL1        0.0322
      7 C           3.3475   31.7818    6.6638 C.ar    1  UNL1        0.0226
      8 C           3.6823   31.8469    5.3055 C.ar    1  UNL1        0.0920
      9 C           4.9272   32.3413    4.9058 C.ar    1  UNL1        0.0212
     10 C           5.8227   32.8112    5.8698 C.ar    1  UNL1        0.0163
     11 C           5.4852   32.7968    7.2317 C.ar    1  UNL1        0.0519
     12 N           6.4150   33.3787    8.1047 N.am    1  UNL1       -0.2822
     13 H           7.3610   33.5499    7.7852 H       1  UNL1        0.1549
     14 C           3.4303   30.5781    9.4411 C.ar    1  UNL1        0.0173
     15 C           4.3285   29.5618    9.7913 C.ar    1  UNL1        0.0015
     16 C           3.8570   28.2952   10.1409 C.ar    1  UNL1        0.0000
     17 C           2.4874   28.0355   10.1376 C.ar    1  UNL1        0.0000
     18 C           1.5883   29.0352    9.7689 C.ar    1  UNL1        0.0000
     19 C           2.0566   30.3013    9.4093 C.ar    1  UNL1        0.0015
     20 N           2.7340   31.3613    4.2943 N.pl3   1  UNL1       -0.1853
     21 O           3.1742   30.6145    3.4086 O.2     1  UNL1       -0.1725
     22 O           1.5570   31.7321    4.3838 O.co2   1  UNL1       -0.7770
@<TRIPOS>UNITY_ATOM_ATTR
22 1
charge -1
@<TRIPOS>BOND
     1     1     2    2
     2     2     3    1
     3     2    12   am
     4     3     4    1
     5     4     5    2
     6     5    14    1
     7     5     6    1
     8    14    15   ar
     9    14    19   ar
    10    15    16   ar
    11    16    17   ar
    12    17    18   ar
    13    18    19   ar
    14     6     7   ar
    15     6    11   ar
    16     7     8   ar
    17     8    20    1
    18     8     9   ar
    19    20    21    2
    20    20    22    1
    21     9    10   ar
    22    10    11   ar
    23    11    12    1
    24    12    13    1
#	Name:			CHEMBL1321154
#	Creating user name:	trannguyen
#	Creation time:		Tue Feb  8 18:26:14 2022


#	Modifying user name:	trannguyen
#	Modification time:	Tue Feb  8 18:26:14 2022

@<TRIPOS>MOLECULE
CHEMBL1321154
 17 17 0 0 0
SMALL
GASTEIGER

@<TRIPOS>ATOM
      1 C           1.9631   28.8740   10.2846 C.ar    1  UNL1        0.0000
      2 C           2.8547   29.8798    9.8754 C.ar    1  UNL1        0.0000
      3 C           2.3950   31.0136    9.2012 C.ar    1  UNL1        0.0000
      4 C           1.0378   31.1515    8.9090 C.ar    1  UNL1        0.0000
      5 C           0.1356   30.1621    9.2972 C.ar    1  UNL1        0.0000
      6 C           0.5798   29.0227    9.9900 C.ar    1  UNL1        0.0000
      7 O          -0.3120   28.0868   10.3734 O.3     1  UNL1        0.0000
      8 H          -1.2597   28.1804   10.1989 H       1  UNL1        0.0000
      9 AS          3.6433   32.4141    8.6988 As      1  UNL1        0.0000
     10 O           4.4481   32.0577    7.3119 O.2     1  UNL1        0.0000
     11 O           2.8436   34.0348    8.3487 O.3     1  UNL1        0.0000
     12 O           4.9687   32.7562    9.9267 O.3     1  UNL1        0.0000
     13 H           2.0405   33.8010    7.8140 H       1  UNL1        0.0000
     14 H           5.4083   31.8818   10.0700 H       1  UNL1        0.0000
     15 O           3.4233   27.1435   10.6022 O.2     1  UNL1        0.0000
     16 N           2.4504   27.7284   10.9994 N.pl3   1  UNL1        0.0000
     17 O           1.8339   27.2921   12.0656 O.co2   1  UNL1       -1.0000
@<TRIPOS>UNITY_ATOM_ATTR
17 1
charge -1
@<TRIPOS>BOND
     1    15    16    2
     2    16    17    1
     3    16     1    1
     4     1     2   ar
     5     1     6   ar
     6     2     3   ar
     7     3     9    1
     8     3     4   ar
     9     9    10    2
    10     9    11    1
    11     9    12    1
    12    11    13    1
    13    12    14    1
    14     4     5   ar
    15     5     6   ar
    16     6     7    1
    17     7     8    1
#	Name:			CHEMBL1321
#	Creating user name:	trannguyen
#	Creation time:		Tue Feb  8 18:26:14 2022


#	Modifying user name:	trannguyen
#	Modification time:	Tue Feb  8 18:26:14 2022

@<TRIPOS>MOLECULE
CHEMBL1321
 19 19 0 0 0
SMALL
GASTEIGER

@<TRIPOS>ATOM
      1 C           1.9831   29.9268    9.9821 C.ar    1  UNL1       -0.0051
      2 C           3.3045   30.3978    9.9781 C.ar    1  UNL1       -0.0027
      3 C           3.7651   31.2200    8.9437 C.ar    1  UNL1        0.0042
      4 C           2.9115   31.5758    7.8942 C.ar    1  UNL1        0.0533
      5 C           1.5826   31.1289    7.9082 C.ar    1  UNL1        0.0042
      6 C           1.1278   30.3017    8.9367 C.ar    1  UNL1       -0.0027
      7 C           3.4345   32.4281    6.7847 C.2     1  UNL1        0.2458
      8 O           3.8494   33.5624    7.0077 O.2     1  UNL1       -0.2701
      9 N           3.4309   31.8405    5.5392 N.am    1  UNL1       -0.3025
     10 H           3.2414   30.8497    5.4735 H       1  UNL1        0.1497
     11 C           3.9143   32.4928    4.3319 C.3     1  UNL1        0.0720
     12 C           5.1116   31.7478    3.7459 C.3     1  UNL1        0.0213
     13 C           2.7723   32.5478    3.3213 C.3     1  UNL1        0.0213
     14 C           1.4859   29.0261   11.0913 C.3     1  UNL1        0.1104
     15 N           1.1480   27.6892   10.5758 N.3     1  UNL1       -0.2409
     16 H           0.2874   27.3946   11.0496 H       1  UNL1        0.1417
     17 C           3.1595   26.7658    9.7355 C.3     1  UNL1        0.1026
     18 N           2.2364   26.7706   10.8711 N.3     1  UNL1       -0.2437
     19 H           2.7604   27.0839   11.6949 H       1  UNL1        0.1414
@<TRIPOS>BOND
     1    17    18    1
     2    18    15    1
     3    18    19    1
     4    15    14    1
     5    15    16    1
     6    14     1    1
     7     1     2   ar
     8     1     6   ar
     9     2     3   ar
    10     3     4   ar
    11     4     7    1
    12     4     5   ar
    13     7     8    2
    14     7     9   am
    15     9    11    1
    16     9    10    1
    17    11    12    1
    18    11    13    1
    19     5     6   ar
#	Name:			CHEMBL1333512
#	Creating user name:	trannguyen
#	Creation time:		Tue Feb  8 18:26:14 2022


#	Modifying user name:	trannguyen
#	Modification time:	Tue Feb  8 18:26:14 2022

@<TRIPOS>MOLECULE
CHEMBL1333512
 22 24 0 0 0
SMALL
GASTEIGER

@<TRIPOS>ATOM
      1 C           4.0348   31.7434    8.1383 C.ar    1  UNL1        0.0484
      2 C           3.1093   31.6856    7.0900 C.ar    1  UNL1        0.0159
      3 C           3.4332   32.1613    5.8119 C.ar    1  UNL1        0.0159
      4 C           4.6910   32.7129    5.5467 C.ar    1  UNL1        0.0484
      5 C           5.6140   32.7686    6.5946 C.ar    1  UNL1        0.0159
      6 C           5.2834   32.3101    7.8771 C.ar    1  UNL1        0.0159
      7 N           3.6576   31.2910    9.4124 N.pl3   1  UNL1       -0.3125
      8 H           3.7590   31.9833   10.1449 H       1  UNL1        0.1522
      9 C           2.3628   27.5133   10.7887 C.ar    1  UNL1        0.0001
     10 C           1.4936   28.5994   10.8450 C.ar    1  UNL1        0.0013
     11 C           1.9103   29.8555   10.3925 C.ar    1  UNL1        0.0146
     12 C           3.1914   30.0424    9.8610 C.ar    1  UNL1        0.0483
     13 C           4.0569   28.9395    9.8224 C.ar    1  UNL1        0.0146
     14 C           3.6473   27.6835   10.2803 C.ar    1  UNL1        0.0013
     15 N           5.0006   33.1279    4.2408 N.pl3   1  UNL1       -0.3125
     16 H           4.4588   33.9163    3.9074 H       1  UNL1        0.1522
     17 C           5.9536   32.6495    3.3248 C.ar    1  UNL1        0.0483
     18 C           6.5293   33.4706    2.3475 C.ar    1  UNL1        0.0146
     19 C           7.4428   32.9579    1.4225 C.ar    1  UNL1        0.0013
     20 C           7.7793   31.6073    1.4511 C.ar    1  UNL1        0.0001
     21 C           7.2070   30.7730    2.4083 C.ar    1  UNL1        0.0013
     22 C           6.3007   31.2924    3.3385 C.ar    1  UNL1        0.0146
@<TRIPOS>BOND
     1     9    10   ar
     2     9    14   ar
     3    10    11   ar
     4    11    12   ar
     5    12     7    1
     6    12    13   ar
     7     7     1    1
     8     7     8    1
     9     1     2   ar
    10     1     6   ar
    11     2     3   ar
    12     3     4   ar
    13     4    15    1
    14     4     5   ar
    15    15    17    1
    16    15    16    1
    17    17    18   ar
    18    17    22   ar
    19    18    19   ar
    20    19    20   ar
    21    20    21   ar
    22    21    22   ar
    23     5     6   ar
    24    13    14   ar
#	Name:			CHEMBL13341
#	Creating user name:	trannguyen
#	Creation time:		Tue Feb  8 18:26:14 2022


#	Modifying user name:	trannguyen
#	Modification time:	Tue Feb  8 18:26:14 2022

@<TRIPOS>MOLECULE
CHEMBL13341
 22 24 0 0 0
SMALL
GASTEIGER

@<TRIPOS>ATOM
      1 C           7.4651   33.4868    8.5969 C.3     1  UNL1        0.1201
      2 N           6.0134   33.4217    8.7094 N.am    1  UNL1       -0.2552
      3 C           5.4382   34.1026    9.7916 C.2     1  UNL1        0.2542
      4 O           6.1207   34.6865   10.6388 O.2     1  UNL1       -0.2724
      5 C           3.9173   34.1863    9.8372 C.3     1  UNL1        0.2104
      6 N           3.3708   32.8626   10.1258 N.2     1  UNL1       -0.2605
      7 C           3.4500   31.9650    9.2024 C.2     1  UNL1        0.0777
      8 C           3.9992   32.2267    7.8397 C.ar    1  UNL1        0.0325
      9 C           3.2462   31.7570    6.7464 C.ar    1  UNL1        0.0226
     10 C           3.7764   31.8258    5.4575 C.ar    1  UNL1        0.0920
     11 C           5.0472   32.3655    5.2484 C.ar    1  UNL1        0.0212
     12 C           5.7741   32.8632    6.3372 C.ar    1  UNL1        0.0165
     13 C           5.2565   32.8348    7.6470 C.ar    1  UNL1        0.0554
     14 C           2.9665   30.5814    9.5279 C.ar    1  UNL1        0.0173
     15 C           3.8985   29.5794    9.8231 C.ar    1  UNL1        0.0015
     16 C           3.4658   28.2868   10.1282 C.ar    1  UNL1        0.0000
     17 C           2.1034   27.9884   10.1343 C.ar    1  UNL1        0.0000
     18 C           1.1712   28.9766    9.8239 C.ar    1  UNL1        0.0000
     19 C           1.5999   30.2678    9.5108 C.ar    1  UNL1        0.0015
     20 N           3.0065   31.3061    4.3201 N.pl3   1  UNL1       -0.1853
     21 O           3.6088   30.6124    3.4884 O.2     1  UNL1       -0.1725
     22 O           1.8065   31.5991    4.2581 O.co2   1  UNL1       -0.7770
@<TRIPOS>UNITY_ATOM_ATTR
22 1
charge -1
@<TRIPOS>BOND
     1     1     2    1
     2     2     3   am
     3     2    13    1
     4     3     4    2
     5     3     5    1
     6     5     6    1
     7     6     7    2
     8     7    14    1
     9     7     8    1
    10    14    15   ar
    11    14    19   ar
    12    15    16   ar
    13    16    17   ar
    14    17    18   ar
    15    18    19   ar
    16     8     9   ar
    17     8    13   ar
    18     9    10   ar
    19    10    20    1
    20    10    11   ar
    21    20    21    2
    22    20    22    1
    23    11    12   ar
    24    12    13   ar
#	Name:			CHEMBL133434
#	Creating user name:	trannguyen
#	Creation time:		Tue Feb  8 18:26:14 2022


#	Modifying user name:	trannguyen
#	Modification time:	Tue Feb  8 18:26:14 2022

@<TRIPOS>MOLECULE
CHEMBL133434
 34 37 0 0 0
SMALL
GASTEIGER

@<TRIPOS>ATOM
      1 C           7.5949   32.0948    9.5256 C.3     1  UNL1        0.0662
      2 C           6.7789   30.8001    9.7068 C.3     1  UNL1        0.0107
      3 C           5.3038   31.2042    9.5016 C.3     1  UNL1        0.0008
      4 C           5.2720   32.6380    8.8978 C.3     1  UNL1        0.0007
      5 C           6.7510   32.8373    8.4292 C.3     1  UNL1        0.0093
      6 C           6.9172   32.1619    7.0258 C.3     1  UNL1        0.0007
      7 C           7.2617   34.2910    8.3879 C.3     1  UNL1        0.0010
      8 C           8.7216   34.3566    7.9328 C.3     1  UNL1        0.0040
      9 C           9.6943   33.3487    8.6115 C.3     1  UNL1        0.0184
     10 C           9.0528   32.0147    9.0452 C.2     1  UNL1       -0.0429
     11 C           9.7602   30.8687    9.0351 C.2     1  UNL1       -0.0342
     12 C          11.2109   30.7587    8.6625 C.3     1  UNL1        0.0255
     13 C          11.9317   32.1219    8.5595 C.3     1  UNL1        0.0069
     14 C          13.4410   32.0205    8.1074 C.3     1  UNL1        0.0251
     15 C          14.2190   31.1669    9.1449 C.3     1  UNL1        0.0024
     16 C          13.6590   31.3418    6.7308 C.3     1  UNL1        0.0024
     17 C          14.0598   33.4507    8.0818 C.3     1  UNL1        0.1104
     18 O          14.1656   33.9541    9.4172 O.3     1  UNL1       -0.3845
     19 C          13.2356   34.4477    7.2637 C.3     1  UNL1        0.0292
     20 C          11.7902   34.5350    7.7523 C.3     1  UNL1        0.0028
     21 C          11.0520   33.1699    7.7903 C.3     1  UNL1        0.0039
     22 C          10.7718   32.7210    6.3319 C.3     1  UNL1        0.0003
     23 H          14.5851   34.8303    9.3693 H       1  UNL1        0.2103
     24 C           8.9462   33.2120   11.5309 C.3     1  UNL1        0.0726
     25 C           7.6068   32.7642   10.9582 C.2     1  UNL1        0.1537
     26 O           6.6106   32.8714   11.6565 O.2     1  UNL1       -0.2958
     27 C           4.1045   32.8045    7.8608 C.3     1  UNL1        0.0000
     28 C           3.1754   33.9826    8.1694 C.3     1  UNL1        0.0000
     29 C           3.2684   31.4946    7.7446 C.3     1  UNL1        0.0000
     30 C           2.1457   31.5633    6.6925 C.3     1  UNL1        0.0000
     31 C           2.5430   31.0620    5.2983 C.3     1  UNL1        0.0000
     32 C           2.7031   32.1527    4.2280 C.3     1  UNL1        0.0000
     33 C           1.7746   33.3329    4.5233 C.3     1  UNL1        0.0000
     34 C           4.1469   32.6431    4.1261 C.3     1  UNL1        0.0000
@<TRIPOS>BOND
     1    24    25    1
     2    25    26    2
     3     1     2    1
     4     1     5    1
     5     1    10    1
     6     1    25    1
     7     2     3    1
     8     3     4    1
     9     4     5    1
    10     4    27    1
    11    27    29    1
    12    27    28    1
    13    29    30    1
    14    30    31    1
    15    31    32    1
    16    32    33    1
    17    32    34    1
    18     5     7    1
    19     5     6    1
    20     7     8    1
    21     8     9    1
    22     9    10    1
    23     9    21    1
    24    10    11    2
    25    11    12    1
    26    12    13    1
    27    13    14    1
    28    13    21    1
    29    14    17    1
    30    14    15    1
    31    14    16    1
    32    17    19    1
    33    17    18    1
    34    18    23    1
    35    19    20    1
    36    20    21    1
    37    21    22    1
#	Name:			CHEMBL13378
#	Creating user name:	trannguyen
#	Creation time:		Tue Feb  8 18:26:14 2022


#	Modifying user name:	trannguyen
#	Modification time:	Tue Feb  8 18:26:14 2022

@<TRIPOS>MOLECULE
CHEMBL13378
 17 17 0 0 0
SMALL
GASTEIGER

@<TRIPOS>ATOM
      1 C           1.9551   30.5278   10.1749 C.3     1  UNL1        0.0609
      2 C           5.0084   29.1516   10.0356 C.3     1  UNL1        0.0751
      3 C           3.6829   28.6028   10.3806 C.ar    1  UNL1        0.1540
      4 O           3.6552   27.2877   10.7463 O.2     1  UNL1       -0.3552
      5 N           2.3526   26.9275   11.0702 N.ar    1  UNL1       -0.0397
      6 C           1.6552   28.0396   10.8881 C.ar    1  UNL1        0.2564
      7 O           0.3488   27.9662   11.1441 O.3     1  UNL1       -0.4902
      8 C           2.4093   29.1349   10.4452 C.ar    1  UNL1        0.0685
      9 H           0.2039   27.0634   11.4828 H       1  UNL1        0.2938
     10 CA          1.0490   30.6746    8.9407 C.3     1  UNL1        0.1556
     11 N           0.0146   31.7530    9.0766 N.3     1  UNL1       -0.3131
     12 H1          0.3449   32.4415    9.7646 H       1  UNL1        0.1193
     13 H2         -0.7943   31.3319    9.5487 H       1  UNL1        0.1193
     14 C           1.9273   31.0064    7.7249 C.2     1  UNL1        0.3283
     15 O           3.0990   31.3653    7.7814 O.2     1  UNL1       -0.2488
     16 OXT         1.2439   30.8703    6.5597 O.3     1  UNL1       -0.4793
     17 HXT         0.3536   30.5231    6.8116 H       1  UNL1        0.2951
@<TRIPOS>BOND
     1     2     3    1
     2     3     4   ar
     3     3     8   ar
     4     4     5   ar
     5     5     6   ar
     6     6     7    1
     7     6     8   ar
     8     7     9    1
     9     8     1    1
    10     1    10    1
    11    10    11    1
    12    10    14    1
    13    11    12    1
    14    11    13    1
    15    14    15    2
    16    14    16    1
    17    16    17    1
#	Name:			CHEMBL133834
#	Creating user name:	trannguyen
#	Creation time:		Tue Feb  8 18:26:14 2022


#	Modifying user name:	trannguyen
#	Modification time:	Tue Feb  8 18:26:14 2022

@<TRIPOS>MOLECULE
CHEMBL133834
 35 38 0 0 0
SMALL
GASTEIGER

@<TRIPOS>ATOM
      1 C           5.0084   32.4320    3.5766 C.3     1  UNL1        0.0004
      2 C           5.0811   33.9649    3.6273 C.3     1  UNL1        0.0004
      3 C           6.3815   34.2763    4.3455 C.3     1  UNL1        0.0061
      4 C           7.4111   33.2637    3.7669 C.3     1  UNL1        0.0395
      5 C           7.7920   33.7295    2.3212 C.2     1  UNL1       -0.0471
      6 C           8.2801   34.9496    2.0721 C.2     1  UNL1       -0.0346
      7 C           8.6269   35.5086    0.7242 C.3     1  UNL1        0.0255
      8 C           7.9847   34.7096   -0.4183 C.3     1  UNL1        0.0069
      9 C           8.2726   35.3016   -1.8504 C.3     1  UNL1        0.0251
     10 C           9.7685   35.4832   -2.1889 C.3     1  UNL1        0.0024
     11 C           7.6507   36.7248   -1.9355 C.3     1  UNL1        0.0024
     12 C           7.5711   34.4016   -2.9072 C.3     1  UNL1        0.1104
     13 O           7.9197   34.7781   -4.2380 O.3     1  UNL1       -0.3845
     14 C           7.9082   32.9212   -2.7501 C.3     1  UNL1        0.0292
     15 C           7.5381   32.3995   -1.3678 C.3     1  UNL1        0.0028
     16 C           8.2186   33.1714   -0.2065 C.3     1  UNL1        0.0039
     17 C           9.7156   32.7791   -0.1468 C.3     1  UNL1        0.0003
     18 C           7.5111   32.7701    1.1620 C.3     1  UNL1        0.0180
     19 C           7.8172   31.3415    1.6026 C.3     1  UNL1        0.0040
     20 C           6.8794   30.8651    2.6998 C.3     1  UNL1        0.0007
     21 C           6.5183   31.9133    3.8000 C.3     1  UNL1        0.0053
     22 C           6.6963   31.1377    5.1245 C.3     1  UNL1        0.0004
     23 H           7.5118   35.6405   -4.4215 H       1  UNL1        0.2103
     24 C           8.6780   33.2043    4.7164 C.3     1  UNL1        0.1139
     25 C           9.0756   34.4675    5.4831 C.3     1  UNL1        0.0320
     26 O           9.8310   32.7426    4.0101 O.3     1  UNL1       -0.3842
     27 H          10.1377   33.4798    3.4539 H       1  UNL1        0.2103
     28 C           3.8115   31.8330    4.4170 C.3     1  UNL1        0.0000
     29 C           2.6146   31.5217    3.4868 C.3     1  UNL1        0.0000
     30 C           3.3035   32.7016    5.6033 C.3     1  UNL1        0.0000
     31 C           3.5360   32.1117    7.0129 C.3     1  UNL1        0.0000
     32 C           2.3148   31.2926    7.4853 C.3     1  UNL1        0.0000
     33 C           1.2456   29.8130    9.2411 C.3     1  UNL1        0.0000
     34 C           2.3499   30.8450    8.9662 C.3     1  UNL1        0.0000
     35 C           3.7044   30.2789    9.3949 C.3     1  UNL1        0.0000
@<TRIPOS>BOND
     1    33    34    1
     2    34    35    1
     3    34    32    1
     4    32    31    1
     5    31    30    1
     6    30    28    1
     7    28    29    1
     8    28     1    1
     9     1     2    1
    10     1    21    1
    11     2     3    1
    12     4     3    1
    13     4     5    1
    14     4    21    1
    15     4    24    1
    16    24    25    1
    17    24    26    1
    18    26    27    1
    19     5     6    2
    20     5    18    1
    21     6     7    1
    22     7     8    1
    23     8     9    1
    24     8    16    1
    25     9    12    1
    26     9    10    1
    27     9    11    1
    28    12    14    1
    29    12    13    1
    30    13    23    1
    31    14    15    1
    32    15    16    1
    33    16    18    1
    34    16    17    1
    35    18    19    1
    36    19    20    1
    37    20    21    1
    38    21    22    1
#	Name:			CHEMBL134342
#	Creating user name:	trannguyen
#	Creation time:		Tue Feb  8 18:26:14 2022


#	Modifying user name:	trannguyen
#	Modification time:	Tue Feb  8 18:26:14 2022

@<TRIPOS>MOLECULE
CHEMBL134342
 13 13 0 0 0
SMALL
GASTEIGER

@<TRIPOS>ATOM
      1 C           1.2851   30.6845    8.4227 C.3     1  UNL1        0.0015
      2 C           1.8310   30.3956    9.8285 C.3     1  UNL1        0.0117
      3 C           2.1531   28.9110   10.0211 C.3     1  UNL1        0.1094
      4 O           1.9464   27.9570   12.2453 O.2     1  UNL1       -0.2503
      5 C           1.4197   28.3159   11.2074 C.2     1  UNL1        0.3138
      6 O           0.0916   28.1662   10.9844 O.3     1  UNL1       -0.4802
      7 H          -0.2108   28.4815   10.1125 H       1  UNL1        0.2951
      8 C           2.4169   30.9818    7.4237 C.3     1  UNL1        0.0117
      9 C           2.1005   32.1176    6.4286 C.3     1  UNL1        0.0588
     10 C           1.8981   31.6163    4.9882 C.3     1  UNL1        0.0242
     11 C           3.2153   31.1295    4.3879 C.3     1  UNL1        0.0696
     12 S           4.4816   32.3666    4.7762 S.3     1  UNL1       -0.0821
     13 S           3.4659   33.3178    6.2832 S.3     1  UNL1       -0.0830
@<TRIPOS>BOND
     1     4     5    2
     2     5     6    1
     3     5     3    1
     4     6     7    1
     5     3     2    1
     6     2     1    1
     7     1     8    1
     8     9    10    1
     9     9    13    1
    10     9     8    1
    11    10    11    1
    12    11    12    1
    13    12    13    1
#	Name:			CHEMBL1349
#	Creating user name:	trannguyen
#	Creation time:		Tue Feb  8 18:26:14 2022


#	Modifying user name:	trannguyen
#	Modification time:	Tue Feb  8 18:26:14 2022

@<TRIPOS>MOLECULE
CHEMBL1349
 28 29 0 0 0
SMALL
GASTEIGER

@<TRIPOS>ATOM
      1 C           1.4148   31.7025    7.8685 C.3     1  UNL1        0.2582
      2 N           1.2516   30.5471    8.7304 N.ar    1  UNL1       -0.2693
      3 C           0.0455   30.0083    9.1143 C.ar    1  UNL1        0.1817
      4 N           0.1938   29.0215    9.9810 N.ar    1  UNL1       -0.2174
      5 C           1.5557   28.9340   10.1855 C.ar    1  UNL1        0.1729
      6 C           2.3421   28.0948   11.1071 C.ar    1  UNL1        0.3022
      7 O           1.8412   27.2166   11.7824 O.2     1  UNL1       -0.2633
      8 N           3.7141   28.4062   11.1660 N.ar    1  UNL1       -0.1756
      9 C           4.2143   29.3009   10.3678 C.ar    1  UNL1        0.1952
     10 N           5.5254   29.6432   10.4440 N.pl3   1  UNL1       -0.3289
     11 N           3.5274   30.0124    9.4225 N.ar    1  UNL1       -0.3121
     12 H           3.9735   30.7822    8.9335 H       1  UNL1        0.1700
     13 C           2.1981   29.8463    9.4017 C.ar    1  UNL1        0.1492
     14 H           6.0184   29.0225   11.0806 H       1  UNL1        0.1451
     15 H           5.9959   29.6966    9.5500 H       1  UNL1        0.1451
     16 O           2.3663   31.3993    6.8443 O.3     1  UNL1       -0.3281
     17 C           2.9752   32.5822    6.3285 C.3     1  UNL1        0.1917
     18 C           4.3448   32.7691    6.9864 C.3     1  UNL1        0.2404
     19 O           4.3485   33.7830    8.0062 O.3     1  UNL1       -0.4448
     20 C           4.9555   33.4266    9.1777 C.2     1  UNL1        0.3312
     21 O           4.4408   32.6839   10.0027 O.2     1  UNL1       -0.2486
     22 C           6.3663   34.0518    9.2847 C.3     1  UNL1        0.1511
     23 N           6.2417   35.4850    9.6573 N.3     1  UNL1       -0.3134
     24 H           5.5851   35.9192    9.0049 H       1  UNL1        0.1193
     25 H           7.1336   35.9606    9.5411 H       1  UNL1        0.1193
     26 C           8.2582   34.2435   11.0128 C.3     1  UNL1        0.0019
     27 C           7.2742   33.3062   10.2967 C.3     1  UNL1        0.0251
     28 C           8.0541   32.1507    9.6587 C.3     1  UNL1        0.0019
@<TRIPOS>BOND
     1    26    27    1
     2    27    28    1
     3    22    23    1
     4    22    20    1
     5    22    27    1
     6    23    24    1
     7    23    25    1
     8    20    21    2
     9    20    19    1
    10    19    18    1
    11    18    17    1
    12    17    16    1
    13    16     1    1
    14     1     2    1
    15     2     3   ar
    16     2    13   ar
    17     3     4   ar
    18     4     5   ar
    19     5     6   ar
    20     5    13   ar
    21     6     7    2
    22     6     8   ar
    23     8     9   ar
    24     9    10    1
    25     9    11   ar
    26    10    14    1
    27    10    15    1
    28    11    12    1
    29    11    13   ar
#	Name:			CHEMBL134
#	Creating user name:	trannguyen
#	Creation time:		Tue Feb  8 18:26:14 2022


#	Modifying user name:	trannguyen
#	Modification time:	Tue Feb  8 18:26:14 2022

@<TRIPOS>MOLECULE
CHEMBL134
 16 17 0 0 0
SMALL
GASTEIGER

@<TRIPOS>ATOM
      1 CL          5.7011   30.4740    9.7089 Cl      1  UNL1       -0.0792
      2 C           4.0907   29.8406    9.7696 C.ar    1  UNL1        0.0927
      3 C           3.9385   28.5009   10.1480 C.ar    1  UNL1        0.0144
      4 C           2.6692   27.9307   10.2099 C.ar    1  UNL1        0.0019
      5 C           1.5514   28.7006    9.8956 C.ar    1  UNL1        0.0144
      6 C           1.7029   30.0404    9.5171 C.ar    1  UNL1        0.0927
      7 CL          0.2657   30.9339    9.1493 Cl      1  UNL1       -0.0792
      8 C           2.9765   30.6339    9.4367 C.ar    1  UNL1        0.1792
      9 N           3.1221   31.9919    9.0785 N.2     1  UNL1       -0.0739
     10 C           3.1911   32.2850    7.8279 C.cat   1  UNL1        0.3717
     11 N           3.1725   31.4795    6.7143 N.pl3   1  UNL1       -0.2218
     12 C           3.4532   32.2300    5.5000 C.3     1  UNL1        0.2040
     13 C           3.1277   33.6662    5.9375 C.3     1  UNL1        0.2040
     14 N           3.3002   33.5705    7.3716 N.pl3   1  UNL1       -0.2218
     15 H           3.5479   30.5467    6.8108 H       1  UNL1        0.2454
     16 H           2.9691   34.2963    7.9925 H       1  UNL1        0.2454
@<TRIPOS>BOND
     1     1     2    1
     2     2     3   ar
     3     2     8   ar
     4     3     4   ar
     5     4     5   ar
     6     5     6   ar
     7     6     7    1
     8     6     8   ar
     9     8     9    1
    10     9    10    2
    11    10    11    1
    12    10    14    1
    13    11    12    1
    14    11    15    1
    15    12    13    1
    16    13    14    1
    17    14    16    1
#	Name:			CHEMBL135
#	Creating user name:	trannguyen
#	Creation time:		Tue Feb  8 18:26:14 2022


#	Modifying user name:	trannguyen
#	Modification time:	Tue Feb  8 18:26:14 2022

@<TRIPOS>MOLECULE
CHEMBL135
 22 25 0 0 0
SMALL
GASTEIGER

@<TRIPOS>ATOM
      1 C           8.2841   32.2961    7.6561 C.3     1  UNL1        0.0024
      2 C           7.4382   32.4212    8.9312 C.3     1  UNL1        0.0248
      3 C           6.1560   33.2804    8.5524 C.3     1  UNL1        0.0027
      4 C           4.6977   32.6572    8.7801 C.3     1  UNL1        0.0044
      5 C           4.5312   31.0985    8.6797 C.3     1  UNL1        0.0220
      6 C           3.2081   30.4595    9.1723 C.ar    1  UNL1       -0.0263
      7 C           1.9577   30.9762    8.8261 C.ar    1  UNL1       -0.0015
      8 C           0.7453   30.3689    9.2427 C.ar    1  UNL1        0.0363
      9 C           0.8025   29.2225   10.0445 C.ar    1  UNL1        0.1333
     10 O          -0.3323   28.6017   10.5072 O.3     1  UNL1       -0.5055
     11 C           1.9939   28.6677   10.3605 C.ar    1  UNL1        0.0320
     12 C           3.2011   29.2335    9.9001 C.ar    1  UNL1       -0.0231
     13 C           4.4318   28.4320   10.1362 C.3     1  UNL1        0.0261
     14 C           5.5822   29.3540   10.3447 C.3     1  UNL1        0.0050
     15 C           5.7879   30.3841    9.2270 C.3     1  UNL1        0.0044
     16 C           6.8810   31.2797    9.7758 C.3     1  UNL1        0.0027
     17 C           6.5664   32.0551   11.1338 C.3     1  UNL1        0.0026
     18 C           7.7148   33.0484   11.3059 C.3     1  UNL1        0.0292
     19 C           8.5065   32.7638   10.0602 C.3     1  UNL1        0.1104
     20 O           9.5736   33.6312    9.7796 O.3     1  UNL1       -0.3845
     21 H          -1.1048   29.0929   10.2223 H       1  UNL1        0.2922
     22 H          10.3376   33.0393    9.6043 H       1  UNL1        0.2103
@<TRIPOS>BOND
     1     2     3    1
     2     2    16    1
     3     2    19    1
     4     2     1    1
     5     3     4    1
     6     4     5    1
     7     5     6    1
     8     5    15    1
     9     6     7   ar
    10     6    12   ar
    11     7     8   ar
    12     8     9   ar
    13     9    11   ar
    14     9    10    1
    15    10    21    1
    16    11    12   ar
    17    12    13    1
    18    13    14    1
    19    14    15    1
    20    15    16    1
    21    16    17    1
    22    17    18    1
    23    18    19    1
    24    19    20    1
    25    20    22    1
#	Name:			CHEMBL1365675
#	Creating user name:	trannguyen
#	Creation time:		Tue Feb  8 18:26:14 2022


#	Modifying user name:	trannguyen
#	Modification time:	Tue Feb  8 18:26:14 2022

@<TRIPOS>MOLECULE
CHEMBL1365675
 22 23 0 0 0
SMALL
GASTEIGER

@<TRIPOS>ATOM
      1 N           6.0356   32.8954    8.4701 N.pl3   1  UNL1       -0.2516
      2 C           6.8040   33.5119    9.5504 C.3     1  UNL1        0.1203
      3 N           5.8827   33.3148    6.1030 N.2     1  UNL1       -0.2278
      4 C           6.5231   33.0077    7.1727 C.2     1  UNL1        0.1687
      5 C           8.4213   33.4414    0.9497 C.3     1  UNL1        0.0310
      6 C           7.8109   33.3631    2.3172 C.ar    1  UNL1       -0.0221
      7 C           8.3070   34.1357    3.3663 C.ar    1  UNL1       -0.0027
      8 C           7.6836   34.1121    4.6174 C.ar    1  UNL1        0.0185
      9 C           6.5627   33.3036    4.8606 C.ar    1  UNL1        0.0788
     10 C           6.0751   32.5021    3.8100 C.ar    1  UNL1       -0.0045
     11 C           4.8587   31.6321    3.9792 C.3     1  UNL1        0.0326
     12 C           6.6925   32.5538    2.5455 C.ar    1  UNL1       -0.0070
     13 C           4.8942   32.1994    8.8331 C.2     1  UNL1        0.1687
     14 N           4.7536   30.9231    8.9980 N.2     1  UNL1       -0.2278
     15 C           3.4731   30.4220    9.3225 C.ar    1  UNL1        0.0788
     16 C           2.3112   31.1713    9.0732 C.ar    1  UNL1        0.0185
     17 C           1.0410   30.6612    9.3392 C.ar    1  UNL1       -0.0027
     18 C           0.8957   29.3693    9.8396 C.ar    1  UNL1       -0.0221
     19 C          -0.4689   28.7970   10.0767 C.3     1  UNL1        0.0310
     20 C           2.0413   28.5966   10.0621 C.ar    1  UNL1       -0.0070
     21 C           3.3298   29.1149    9.8266 C.ar    1  UNL1       -0.0045
     22 C           4.5251   28.2510   10.1243 C.3     1  UNL1        0.0326
@<TRIPOS>BOND
     1     5     6    1
     2     6     7   ar
     3     6    12   ar
     4     7     8   ar
     5     8     9   ar
     6     9     3    1
     7     9    10   ar
     8     3     4    2
     9     4     1    1
    10     1     2    1
    11     1    13    1
    12    13    14    2
    13    14    15    1
    14    15    16   ar
    15    15    21   ar
    16    16    17   ar
    17    17    18   ar
    18    18    19    1
    19    18    20   ar
    20    20    21   ar
    21    21    22    1
    22    10    11    1
    23    10    12   ar
#	Name:			CHEMBL1370561
#	Creating user name:	trannguyen
#	Creation time:		Tue Feb  8 18:26:14 2022


#	Modifying user name:	trannguyen
#	Modification time:	Tue Feb  8 18:26:14 2022

@<TRIPOS>MOLECULE
CHEMBL1370561
 14 15 0 0 0
SMALL
GASTEIGER

@<TRIPOS>ATOM
      1 C           2.1004   32.1032    7.4252 C.3     1  UNL1        0.1383
      2 N           2.2881   31.0794    8.4321 N.ar    1  UNL1       -0.2455
      3 C           1.1505   30.4849    8.9820 C.ar    1  UNL1        0.2830
      4 O          -0.0063   30.7690    8.6863 O.2     1  UNL1       -0.2652
      5 C           1.4626   29.5180    9.9697 C.ar    1  UNL1        0.1494
      6 N           0.6519   28.7334   10.7365 N.ar    1  UNL1       -0.3300
      7 H          -0.3594   28.7149   10.7206 H       1  UNL1        0.1677
      8 C           1.4726   28.0129   11.5654 C.ar    1  UNL1        0.1767
      9 N           2.7440   28.2959   11.3601 N.ar    1  UNL1       -0.2065
     10 C           2.7291   29.2322   10.3717 C.ar    1  UNL1        0.1694
     11 N           3.8160   29.8742    9.8317 N.ar    1  UNL1       -0.2628
     12 C           5.1511   29.6199   10.3368 C.3     1  UNL1        0.1366
     13 C           3.6142   30.8599    8.8620 C.ar    1  UNL1        0.3350
     14 O           4.5520   31.5164    8.3987 O.2     1  UNL1       -0.2461
@<TRIPOS>BOND
     1     1     2    1
     2     2     3   ar
     3     2    13   ar
     4     3     4    2
     5     3     5   ar
     6     5     6   ar
     7     5    10   ar
     8     6     7    1
     9     6     8   ar
    10     8     9   ar
    11     9    10   ar
    12    10    11   ar
    13    11    12    1
    14    11    13   ar
    15    13    14    2
#	Name:			CHEMBL1370
#	Creating user name:	trannguyen
#	Creation time:		Tue Feb  8 18:26:14 2022


#	Modifying user name:	trannguyen
#	Modification time:	Tue Feb  8 18:26:14 2022

@<TRIPOS>MOLECULE
CHEMBL1370
 33 37 0 0 0
SMALL
GASTEIGER

@<TRIPOS>ATOM
      1 C           2.2219   33.3254   10.2225 C.3     1  UNL1        0.2354
      2 O           2.7879   34.5902    9.9031 O.3     1  UNL1       -0.3301
      3 C           4.0155   34.2832    9.2533 C.3     1  UNL1        0.1493
      4 C           5.1403   34.0763   10.2609 C.3     1  UNL1        0.0326
      5 C           6.1151   33.1253    9.5473 C.3     1  UNL1        0.0054
      6 C           7.1052   33.9109    8.6414 C.3     1  UNL1        0.0034
      7 C           8.1239   34.7243    9.4696 C.3     1  UNL1        0.0045
      8 C           9.2521   33.8723   10.0321 C.3     1  UNL1        0.0224
      9 C           9.9586   33.2011    8.8878 C.2     1  UNL1       -0.0378
     10 C          11.2413   33.5094    8.6276 C.2     1  UNL1        0.0338
     11 C          11.9579   32.9637    7.4571 C.2     1  UNL1        0.1948
     12 O          13.1196   33.2549    7.2276 O.2     1  UNL1       -0.2866
     13 C          11.1986   32.0627    6.5734 C.2     1  UNL1        0.0377
     14 C           9.9218   31.7508    6.8357 C.2     1  UNL1       -0.0197
     15 C           9.1045   32.2507    8.0296 C.3     1  UNL1        0.0361
     16 C           8.8133   30.9874    8.8620 C.3     1  UNL1        0.0085
     17 C           7.8202   33.0564    7.5501 C.3     1  UNL1        0.0341
     18 C           6.7121   32.3387    6.7490 C.3     1  UNL1        0.1111
     19 O           7.2270   31.5461    5.6896 O.3     1  UNL1       -0.3844
     20 C           5.7943   31.4595    7.5887 C.3     1  UNL1        0.0320
     21 C           5.1536   32.1140    8.8322 C.3     1  UNL1        0.0341
     22 C           4.8619   30.9416    9.8167 C.3     1  UNL1        0.0029
     23 C           3.8156   32.9259    8.5841 C.3     1  UNL1        0.1729
     24 O           2.7031   32.3493    9.2967 O.3     1  UNL1       -0.3257
     25 H           7.5796   32.1556    5.0161 H       1  UNL1        0.2103
     26 C           3.3648   33.0977    7.1234 C.2     1  UNL1        0.2065
     27 O           3.6998   34.0718    6.4427 O.2     1  UNL1       -0.2909
     28 C           2.4719   31.9964    6.5369 C.3     1  UNL1        0.2045
     29 O           1.1107   32.1120    6.9219 O.3     1  UNL1       -0.3749
     30 H           1.1061   32.2905    7.8807 H       1  UNL1        0.2110
     31 C           0.6999   33.4013   10.1976 C.3     1  UNL1        0.0614
     32 C          -1.1234   34.7381   11.3230 C.3     1  UNL1        0.0002
     33 C           0.1968   34.7958   10.5729 C.3     1  UNL1        0.0052
@<TRIPOS>BOND
     1    32    33    1
     2    33    31    1
     3    31     1    1
     4     1     2    1
     5     1    24    1
     6     2     3    1
     7     3     4    1
     8     3    23    1
     9     4     5    1
    10     5     6    1
    11     5    21    1
    12     6     7    1
    13     6    17    1
    14     7     8    1
    15     8     9    1
    16     9    10    2
    17     9    15    1
    18    10    11    1
    19    11    13    1
    20    11    12    2
    21    13    14    2
    22    14    15    1
    23    15    17    1
    24    15    16    1
    25    17    18    1
    26    18    20    1
    27    18    19    1
    28    19    25    1
    29    20    21    1
    30    21    23    1
    31    21    22    1
    32    23    24    1
    33    23    26    1
    34    26    27    2
    35    26    28    1
    36    28    29    1
    37    29    30    1
#	Name:			CHEMBL1371125
#	Creating user name:	trannguyen
#	Creation time:		Tue Feb  8 18:26:14 2022


#	Modifying user name:	trannguyen
#	Modification time:	Tue Feb  8 18:26:14 2022

@<TRIPOS>MOLECULE
CHEMBL1371125
 20 24 0 0 0
SMALL
GASTEIGER

@<TRIPOS>ATOM
      1 C           3.0852   33.6593    3.8617 C.ar    1  UNL1        0.0000
      2 C           1.8690   33.1396    4.2486 C.ar    1  UNL1        0.0000
      3 C           1.7865   32.4007    5.4282 C.ar    1  UNL1        0.0000
      4 C           2.9078   32.1499    6.2673 C.ar    1  UNL1        0.0000
      5 C           4.1641   32.6854    5.8662 C.ar    1  UNL1        0.0000
      6 C           4.2073   33.4340    4.6575 C.ar    1  UNL1        0.0000
      7 C           5.3292   32.4611    6.6739 C.ar    1  UNL1        0.0000
      8 C           6.6199   32.9557    6.3490 C.ar    1  UNL1        0.0000
      9 C           7.7385   32.7260    7.1490 C.ar    1  UNL1        0.0000
     10 C           7.6089   31.9877    8.3125 C.ar    1  UNL1        0.0000
     11 C           6.3640   31.4752    8.6823 C.ar    1  UNL1        0.0000
     12 C           6.2545   30.7323    9.8594 C.ar    1  UNL1        0.0000
     13 C           5.0284   30.2096   10.2519 C.ar    1  UNL1        0.0000
     14 C           3.8870   30.4202    9.4751 C.ar    1  UNL1        0.0000
     15 C           2.6684   29.8835    9.8943 C.ar    1  UNL1        0.0000
     16 C           1.5256   30.0822    9.1389 C.ar    1  UNL1        0.0000
     17 C           1.5977   30.8196    7.9575 C.ar    1  UNL1        0.0000
     18 C           2.8083   31.3881    7.4803 C.ar    1  UNL1        0.0000
     19 C           3.9668   31.1745    8.2686 C.ar    1  UNL1        0.0000
     20 C           5.2173   31.7069    7.8685 C.ar    1  UNL1        0.0000
@<TRIPOS>BOND
     1     1     2   ar
     2     1     6   ar
     3     2     3   ar
     4     3     4   ar
     5     4     5   ar
     6     4    18   ar
     7     5     6   ar
     8     5     7   ar
     9     7     8   ar
    10     7    20   ar
    11     8     9   ar
    12     9    10   ar
    13    10    11   ar
    14    11    12   ar
    15    11    20   ar
    16    12    13   ar
    17    13    14   ar
    18    14    15   ar
    19    14    19   ar
    20    15    16   ar
    21    16    17   ar
    22    17    18   ar
    23    18    19   ar
    24    19    20   ar
#	Name:			CHEMBL1371937
#	Creating user name:	trannguyen
#	Creation time:		Tue Feb  8 18:26:14 2022


#	Modifying user name:	trannguyen
#	Modification time:	Tue Feb  8 18:26:14 2022

@<TRIPOS>MOLECULE
CHEMBL1371937
 18 17 0 0 0
SMALL
GASTEIGER

@<TRIPOS>ATOM
      1 C           3.6417   33.5334    5.6122 C.3     1  UNL1        0.1887
      2 O           2.7978   34.6901    5.5529 O.3     1  UNL1       -0.3757
      3 H           1.8753   34.3551    5.4823 H       1  UNL1        0.2110
      4 C           3.8618   33.1449    7.0903 C.2     1  UNL1        0.2494
      5 O           4.7922   32.4285    7.4952 O.2     1  UNL1       -0.2725
      6 N           2.9463   33.6704    7.9693 N.am    1  UNL1       -0.3023
      7 H           2.0919   34.0540    7.5655 H       1  UNL1        0.1495
      8 C           3.0088   33.3911    9.3914 C.3     1  UNL1        0.0920
      9 C           1.6487   33.0184    9.9823 C.3     1  UNL1        0.0530
     10 C           0.9993   31.8158    9.3070 C.3     1  UNL1        0.1389
     11 O           0.0515   32.2416    8.3369 O.3     1  UNL1       -0.3819
     12 H          -0.7338   32.5529    8.8386 H       1  UNL1        0.2104
     13 C           4.2949   31.4570    4.2783 C.3     1  UNL1        0.0054
     14 C           3.1231   32.3645    4.7126 C.3     1  UNL1        0.0603
     15 C           2.5046   32.9414    3.4169 C.3     1  UNL1        0.0054
     16 C           2.0548   31.5174    5.4416 C.3     1  UNL1        0.1398
     17 O           0.9070   32.3136    5.7427 O.3     1  UNL1       -0.3819
     18 H           0.3568   31.7895    6.3553 H       1  UNL1        0.2104
@<TRIPOS>BOND
     1    13    14    1
     2    14    15    1
     3    14    16    1
     4    14     1    1
     5    16    17    1
     6    17    18    1
     7     1     2    1
     8     1     4    1
     9     2     3    1
    10     4     5    2
    11     4     6   am
    12     6     8    1
    13     6     7    1
    14     8     9    1
    15     9    10    1
    16    10    11    1
    17    11    12    1
#	Name:			CHEMBL1371
#	Creating user name:	trannguyen
#	Creation time:		Tue Feb  8 18:26:14 2022


#	Modifying user name:	trannguyen
#	Modification time:	Tue Feb  8 18:26:14 2022

@<TRIPOS>MOLECULE
CHEMBL1371
 12 13 0 0 0
SMALL
GASTEIGER

@<TRIPOS>ATOM
      1 O           2.1636   26.8118   11.8182 O.2     1  UNL1       -0.2229
      2 C           2.1299   27.7933   11.0912 C.ar    1  UNL1        0.4187
      3 N           3.2362   28.4766   10.6427 N.ar    1  UNL1       -0.2874
      4 H           4.1821   28.2242   10.8775 H       1  UNL1        0.1721
      5 C           2.8020   29.5057    9.8589 C.ar    1  UNL1        0.0972
      6 C           3.5044   30.4717    9.1787 C.ar    1  UNL1        0.0316
      7 C           2.7445   31.3936    8.4555 C.ar    1  UNL1        0.0593
      8 CL          3.5433   32.6358    7.5697 Cl      1  UNL1       -0.0822
      9 C           1.3357   31.3275    8.4342 C.ar    1  UNL1        0.0146
     10 C           0.6581   30.3269    9.1415 C.ar    1  UNL1        0.0400
     11 C           1.4244   29.4255    9.8478 C.ar    1  UNL1        0.1658
     12 O           0.9474   28.3684   10.6054 O.2     1  UNL1       -0.4069
@<TRIPOS>BOND
     1     1     2    2
     2     2     3   ar
     3     2    12   ar
     4     3     4    1
     5     3     5   ar
     6     5     6   ar
     7     5    11   ar
     8     6     7   ar
     9     7     8    1
    10     7     9   ar
    11     9    10   ar
    12    10    11   ar
    13    11    12   ar
#	Name:			CHEMBL1372
#	Creating user name:	trannguyen
#	Creation time:		Tue Feb  8 18:26:14 2022


#	Modifying user name:	trannguyen
#	Modification time:	Tue Feb  8 18:26:14 2022

@<TRIPOS>MOLECULE
CHEMBL1372
 52 51 0 0 0
SMALL
GASTEIGER

@<TRIPOS>ATOM
      1 S           7.0745   30.9631    8.8560 S.3     1  UNK1       -0.0798
      2 S           8.0902   32.6717    9.4508 S.3     1  UNK1       -0.0798
      3 C           7.0052   34.0407    8.8939 C.3     1  UNK1        0.0976
      4 C           6.2662   34.7907   10.0333 C.3     1  UNK1        0.1603
      5 C           7.1519   35.8342   10.8155 C.2     1  UNK1        0.2417
      6 O           7.0833   36.0167   12.0266 O.2     1  UNK1       -0.2733
      7 N           8.0834   36.4745    9.9937 N.am    2  GLY2       -0.2937
      8 H           8.4404   35.8149    9.3145 H       2  GLY2        0.1500
      9 CA          9.0879   37.4378   10.4976 C.3     2  GLY2        0.2004
     10 C          10.2783   36.7332   11.1717 C.2     2  GLY2        0.3341
     11 O          11.2709   36.3320   10.5730 O.2     2  GLY2       -0.2484
     12 OXT        10.1730   36.5846   12.5155 O.3     2  GLY2       -0.4790
     13 HXT         9.2953   36.8097   12.8703 H       2  GLY2        0.2951
     14 N           5.0422   35.4409    9.5144 N.am    1  UNK1       -0.2976
     15 C           3.7923   35.1478   10.0126 C.2     1  UNK1        0.2228
     16 O           3.6257   34.3395   10.9245 O.2     1  UNK1       -0.2751
     17 H           5.0925   35.9264    8.6267 H       1  UNK1        0.1498
     18 C           2.6301   35.8229    9.2931 C.3     1  UNK1        0.0870
     19 C           1.6443   36.3709   10.3249 C.3     1  UNK1        0.0365
     20 C           1.5624   37.9025   10.3820 C.3     1  UNK1        0.1515
     21 N           0.3741   38.2611   11.1989 N.3     1  UNK1       -0.3134
     22 H           0.3757   39.2795   11.3310 H       1  UNK1        0.1193
     23 H           0.5089   37.8906   12.1440 H       1  UNK1        0.1193
     24 C           1.3706   38.4981    8.9721 C.2     1  UNK1        0.3279
     25 O           0.4026   38.3451    8.2814 O.2     1  UNK1       -0.2488
     26 O           2.4483   39.2573    8.6153 O.3     1  UNK1       -0.4793
     27 H           3.1628   39.1010    9.2730 H       1  UNK1        0.2951
     28 C           5.4926   31.1148    9.7735 C.3     1  UNK1        0.0976
     29 C           4.2321   31.0283    8.8830 C.3     1  UNK1        0.1603
     30 C           4.1414   32.8628    7.1130 C.2     1  UNK1        0.2228
     31 O           3.7956   34.0154    6.8532 O.2     1  UNK1       -0.2751
     32 N           3.8328   32.3368    8.3323 N.am    1  UNK1       -0.2976
     33 H           3.5042   33.0432    8.9853 H       1  UNK1        0.1498
     34 C           4.8257   32.0060    6.0683 C.3     1  UNK1        0.0870
     35 C           4.1460   32.1676    4.7082 C.3     1  UNK1        0.0365
     36 N           2.7132   31.0280    3.0783 N.3     1  UNK1       -0.3134
     37 C           2.9920   31.1759    4.5185 C.3     1  UNK1        0.1515
     38 H           2.3270   31.8864    2.6892 H       1  UNK1        0.1193
     39 H           1.9891   30.3147    2.9546 H       1  UNK1        0.1193
     40 C           1.6984   31.5365    5.2757 C.2     1  UNK1        0.3279
     41 O           0.9319   32.4164    4.9055 O.2     1  UNK1       -0.2488
     42 O           1.4973   30.8708    6.4346 O.3     1  UNK1       -0.4793
     43 H           2.1811   30.2188    6.6757 H       1  UNK1        0.2951
     44 C           3.1002   30.4773    9.7966 C.2     1  UNK1        0.2417
     45 O           2.4892   31.1932   10.5868 O.2     1  UNK1       -0.2733
     46 N           2.7303   29.1731    9.5510 N.am    2  GLY2       -0.2937
     47 H           3.2814   28.6336    8.8907 H       2  GLY2        0.1500
     48 CA          1.5476   28.5485   10.1273 C.3     2  GLY2        0.2004
     49 C           1.8963   27.6759   11.3326 C.2     2  GLY2        0.3341
     50 O           1.9220   28.1005   12.4805 O.2     2  GLY2       -0.2484
     51 OXT         2.1812   26.3857   11.0436 O.3     2  GLY2       -0.4790
     52 HXT         2.2343   26.1665   10.0932 H       2  GLY2        0.2951
@<TRIPOS>BOND
     1    36    37    1
     2    36    38    1
     3    36    39    1
     4    37    35    1
     5    37    40    1
     6    35    34    1
     7    34    30    1
     8    30    31    2
     9    30    32   am
    10    32    29    1
    11    32    33    1
    12    29    28    1
    13    29    44    1
    14    28     1    1
    15     1     2    1
    16     2     3    1
    17     4    14    1
    18     4     5    1
    19     4     3    1
    20    14    15   am
    21    14    17    1
    22    15    16    2
    23    15    18    1
    24    18    19    1
    25    20    21    1
    26    20    24    1
    27    20    19    1
    28    21    22    1
    29    21    23    1
    30    24    25    2
    31    24    26    1
    32    26    27    1
    33     5     6    2
    34     5     7   am
    35     7     9    1
    36     7     8    1
    37     9    10    1
    38    10    11    2
    39    10    12    1
    40    12    13    1
    41    44    45    2
    42    44    46   am
    43    46    48    1
    44    46    47    1
    45    48    49    1
    46    49    50    2
    47    49    51    1
    48    51    52    1
    49    40    41    2
    50    40    42    1
    51    42    43    1
#	Name:			CHEMBL1373
#	Creating user name:	trannguyen
#	Creation time:		Tue Feb  8 18:26:14 2022


#	Modifying user name:	trannguyen
#	Modification time:	Tue Feb  8 18:26:14 2022

@<TRIPOS>MOLECULE
CHEMBL1373
 21 22 0 0 0
SMALL
GASTEIGER

@<TRIPOS>ATOM
      1 C           2.9350   31.5930    9.3640 C.3     1  UNL1        0.1115
      2 C           2.8213   30.1283    9.8369 C.ar    1  UNL1       -0.0069
      3 C           3.9004   29.2263    9.8100 C.ar    1  UNL1       -0.0031
      4 C           3.7561   27.8954   10.2126 C.ar    1  UNL1       -0.0003
      5 C           2.5320   27.4375   10.6817 C.ar    1  UNL1       -0.0000
      6 C           1.4526   28.3140   10.7493 C.ar    1  UNL1       -0.0003
      7 C           1.5940   29.6456   10.3332 C.ar    1  UNL1       -0.0031
      8 C           3.0262   31.7299    7.8461 C.ar    1  UNL1       -0.0069
      9 C           4.1667   32.3118    7.2567 C.ar    1  UNL1       -0.0031
     10 C           4.2897   32.4091    5.8666 C.ar    1  UNL1       -0.0003
     11 C           3.2744   31.9324    5.0425 C.ar    1  UNL1       -0.0000
     12 C           2.1357   31.3633    5.6079 C.ar    1  UNL1       -0.0003
     13 C           2.0141   31.2577    6.9973 C.ar    1  UNL1       -0.0031
     14 S           1.6831   32.7091   10.1788 S.3     1  UNL1       -0.0070
     15 O           0.2801   32.5662    9.4779 O.3     1  UNL1       -0.1597
     16 C           2.3156   34.3391    9.7315 C.3     1  UNL1        0.1631
     17 N           4.5948   35.1700    9.6310 N.am    1  UNL1       -0.3280
     18 C           3.5774   34.7331   10.4402 C.2     1  UNL1        0.2320
     19 O           3.7491   34.6790   11.6542 O.2     1  UNL1       -0.2743
     20 H           5.4446   35.4711   10.0833 H       1  UNL1        0.1450
     21 H           4.4607   35.3949    8.6567 H       1  UNL1        0.1450
@<TRIPOS>BOND
     1    17    18   am
     2    17    20    1
     3    17    21    1
     4    18    19    2
     5    18    16    1
     6    16    14    1
     7    14    15    1
     8    14     1    1
     9     1     2    1
    10     1     8    1
    11     2     3   ar
    12     2     7   ar
    13     3     4   ar
    14     4     5   ar
    15     5     6   ar
    16     6     7   ar
    17     8     9   ar
    18     8    13   ar
    19     9    10   ar
    20    10    11   ar
    21    11    12   ar
    22    12    13   ar
#	Name:			CHEMBL137
#	Creating user name:	trannguyen
#	Creation time:		Tue Feb  8 18:26:14 2022


#	Modifying user name:	trannguyen
#	Modification time:	Tue Feb  8 18:26:14 2022

@<TRIPOS>MOLECULE
CHEMBL137
 13 13 0 0 0
SMALL
GASTEIGER

@<TRIPOS>ATOM
      1 C           4.2335   32.0495    9.1341 C.3     1  UNL1        0.0719
      2 C           4.1927   30.6375    9.6071 C.ar    1  UNL1        0.1220
      3 N           5.2279   29.8200    9.5809 N.ar    1  UNL1       -0.2277
      4 C           4.7880   28.6303   10.0979 C.ar    1  UNL1        0.1379
      5 C           3.4641   28.7263   10.4383 C.ar    1  UNL1        0.1744
      6 N           3.0682   30.0039   10.1248 N.ar    1  UNL1       -0.2971
      7 N           2.6512   27.7074   11.0092 N.pl3   1  UNL1       -0.1669
      8 O           2.4861   26.6861   10.3258 O.2     1  UNL1       -0.1711
      9 O           2.1775   27.8957   12.1329 O.co2   1  UNL1       -0.7758
     10 C           1.7455   30.6034   10.2273 C.3     1  UNL1        0.1403
     11 C           0.8186   30.2469    9.0657 C.3     1  UNL1        0.1617
     12 O          -0.1165   31.2936    8.8313 O.3     1  UNL1       -0.3799
     13 H          -0.8282   30.9331    8.2727 H       1  UNL1        0.2105
@<TRIPOS>UNITY_ATOM_ATTR
9 1
charge -1
@<TRIPOS>BOND
     1     1     2    1
     2     2     3   ar
     3     2     6   ar
     4     3     4   ar
     5     4     5   ar
     6     5     7    1
     7     5     6   ar
     8     7     8    2
     9     7     9    1
    10     6    10    1
    11    10    11    1
    12    11    12    1
    13    12    13    1
#	Name:			CHEMBL1381098
#	Creating user name:	trannguyen
#	Creation time:		Tue Feb  8 18:26:14 2022


#	Modifying user name:	trannguyen
#	Modification time:	Tue Feb  8 18:26:14 2022

@<TRIPOS>MOLECULE
CHEMBL1381098
 13 14 0 0 0
SMALL
GASTEIGER

@<TRIPOS>ATOM
      1 C           3.1795   31.2013    8.6899 C.ar    1  UNL1        0.0909
      2 C           4.5731   31.3785    8.7110 C.ar    1  UNL1        0.0199
      3 C           5.3850   30.5556    9.4852 C.ar    1  UNL1        0.0016
      4 C           4.8147   29.5322   10.2383 C.ar    1  UNL1        0.0001
      5 C           3.4297   29.3074   10.2180 C.ar    1  UNL1        0.0015
      6 C           2.8677   28.2612   10.9682 C.ar    1  UNL1        0.0000
      7 C           1.4944   28.0196   10.9461 C.ar    1  UNL1        0.0000
      8 C           0.6644   28.8189   10.1703 C.ar    1  UNL1        0.0000
      9 C           1.2073   29.8639    9.4203 C.ar    1  UNL1        0.0015
     10 C           2.5934   30.1379    9.4305 C.ar    1  UNL1        0.0184
     11 S           2.5132   31.4180    5.1891 S.2     1  UNL1        0.0207
     12 C           2.4612   31.7713    6.7420 C.1     1  UNL1        0.0415
     13 N           2.4002   32.0601    7.8803 N.2     1  UNL1       -0.1961
@<TRIPOS>BOND
     1    11    12    2
     2    12    13    2
     3    13     1    1
     4     1     2   ar
     5     1    10   ar
     6     2     3   ar
     7     3     4   ar
     8     4     5   ar
     9     5     6   ar
    10     5    10   ar
    11     6     7   ar
    12     7     8   ar
    13     8     9   ar
    14     9    10   ar
#	Name:			CHEMBL1384
#	Creating user name:	trannguyen
#	Creation time:		Tue Feb  8 18:26:14 2022


#	Modifying user name:	trannguyen
#	Modification time:	Tue Feb  8 18:26:14 2022

@<TRIPOS>MOLECULE
CHEMBL1384
 48 50 0 0 0
SMALL
GASTEIGER

@<TRIPOS>ATOM
      1 C           4.3963   31.6034    9.5102 C.3     1  UNL1        0.1610
      2 C           3.6079   30.3042    9.7309 C.3     1  UNL1        0.0824
      3 N           4.2196   29.4426   10.7679 N.3     1  UNL1       -0.3202
      4 C           2.0961   30.4466    9.8131 C.3     1  UNL1        0.0361
      5 C           1.4455   31.4208    8.7721 C.3     1  UNL1        0.0824
      6 N           0.3473   32.0757    9.5301 N.3     1  UNL1       -0.3202
      7 C           2.3667   32.5359    8.1646 C.3     1  UNL1        0.1610
      8 C           3.4803   32.8295    9.2127 C.3     1  UNL1        0.1673
      9 O           2.8578   33.2480   10.4693 O.3     1  UNL1       -0.3795
     10 H           5.2400   29.5273   10.6549 H       1  UNL1        0.1189
     11 H           4.0206   28.4692   10.5403 H       1  UNL1        0.1189
     12 H          -0.2337   32.6304    8.9024 H       1  UNL1        0.1189
     13 H          -0.2601   31.3594    9.9329 H       1  UNL1        0.1189
     14 H           1.8997   33.0304   10.4459 H       1  UNL1        0.2105
     15 O           5.5660   31.3464    8.6932 O.3     1  UNL1       -0.3272
     16 C           8.7421   32.0653    7.9858 C.3     1  UNL1        0.1624
     17 O           7.8057   30.9744    8.1474 O.3     1  UNL1       -0.3271
     18 C           6.8572   31.0414    9.2447 C.3     1  UNL1        0.2657
     19 C           7.4310   31.9750   10.3463 C.3     1  UNL1        0.1964
     20 O           6.8204   31.9520   11.6411 O.3     1  UNL1       -0.3775
     21 C           7.5158   33.3963    9.8180 C.3     1  UNL1        0.1715
     22 O           8.1910   34.2165   10.7897 O.3     1  UNL1       -0.3794
     23 C           8.2114   33.4370    8.4608 C.3     1  UNL1        0.1682
     24 O           7.2002   33.8953    7.5391 O.3     1  UNL1       -0.3795
     25 H           7.2973   32.6090   12.1674 H       1  UNL1        0.2106
     26 H           7.5633   34.9115   11.0445 H       1  UNL1        0.2105
     27 H           7.5988   34.6571    7.0499 H       1  UNL1        0.2105
     28 N          10.5446   30.2800    8.2944 N.3     1  UNL1       -0.3191
     29 C          10.1245   31.6521    8.5837 C.3     1  UNL1        0.0978
     30 H          11.4144   30.0885    8.7982 H       1  UNL1        0.1189
     31 H          10.7942   30.1940    7.3083 H       1  UNL1        0.1189
     32 O           2.9200   32.2810    6.8555 O.3     1  UNL1       -0.3272
     33 C           3.4611   33.3662    6.0585 C.3     1  UNL1        0.2646
     34 O           4.8865   33.2237    5.9494 O.3     1  UNL1       -0.3260
     35 C           5.4816   32.9693    4.6575 C.3     1  UNL1        0.1750
     36 C           4.6516   32.1504    3.6144 C.3     1  UNL1        0.1566
     37 O           5.1585   30.8091    3.4922 O.3     1  UNL1       -0.3804
     38 C           3.1697   32.0631    3.9704 C.3     1  UNL1        0.1128
     39 N           2.3438   31.6607    2.7920 N.3     1  UNL1       -0.3181
     40 C           2.7990   33.4013    4.6182 C.3     1  UNL1        0.1835
     41 O           1.4361   33.6909    4.5633 O.3     1  UNL1       -0.3783
     42 H           6.0113   30.8680    3.0358 H       1  UNL1        0.2105
     43 H           1.5100   31.1813    3.1452 H       1  UNL1        0.1190
     44 H           2.8609   30.8887    2.3577 H       1  UNL1        0.1190
     45 H           1.1512   33.3133    3.6780 H       1  UNL1        0.2106
     46 C           5.9824   34.2968    4.0308 C.3     1  UNL1        0.1693
     47 O           6.8754   34.9761    4.8926 O.3     1  UNL1       -0.3794
     48 H           6.3781   35.3372    5.6383 H       1  UNL1        0.2105
@<TRIPOS>BOND
     1    28    29    1
     2    28    30    1
     3    28    31    1
     4    29    16    1
     5    16    17    1
     6    16    23    1
     7    17    18    1
     8    18    15    1
     9    18    19    1
    10     1     2    1
    11     1     8    1
    12     1    15    1
    13     2     3    1
    14     2     4    1
    15     3    10    1
    16     3    11    1
    17     4     5    1
    18     5     7    1
    19     5     6    1
    20     6    12    1
    21     6    13    1
    22     7    32    1
    23     7     8    1
    24    32    33    1
    25    33    34    1
    26    33    40    1
    27    34    35    1
    28    35    46    1
    29    35    36    1
    30    46    47    1
    31    47    48    1
    32    36    38    1
    33    36    37    1
    34    37    42    1
    35    38    39    1
    36    38    40    1
    37    39    43    1
    38    39    44    1
    39    40    41    1
    40    41    45    1
    41     8     9    1
    42     9    14    1
    43    19    20    1
    44    19    21    1
    45    20    25    1
    46    21    23    1
    47    21    22    1
    48    22    26    1
    49    23    24    1
    50    24    27    1
#	Name:			CHEMBL1385840
#	Creating user name:	trannguyen
#	Creation time:		Tue Feb  8 18:26:14 2022


#	Modifying user name:	trannguyen
#	Modification time:	Tue Feb  8 18:26:14 2022

@<TRIPOS>MOLECULE
CHEMBL1385840
 44 50 0 0 0
SMALL
GASTEIGER

@<TRIPOS>ATOM
      1 C           2.1520   31.0878    8.8240 C.3     1  UNL1        0.1560
      2 C           1.0705   32.0300    9.4237 C.2     1  UNL1        0.2440
      3 O          -0.0627   31.6423    9.6975 O.2     1  UNL1       -0.2731
      4 N           1.5026   33.3023    9.7288 N.am    1  UNL1       -0.2734
      5 C           0.6577   34.3526   10.2603 C.3     1  UNL1        0.0937
      6 C           1.6412   35.4345   10.6975 C.3     1  UNL1        0.0234
      7 C           2.8380   35.2214    9.7680 C.3     1  UNL1        0.0285
      8 C           2.9017   33.6954    9.6696 C.3     1  UNL1        0.1465
      9 C           3.6617   33.1022    8.4566 C.3     1  UNL1        0.2754
     10 O           5.0412   32.9537    8.7462 O.3     1  UNL1       -0.3478
     11 O           3.5581   33.9328    7.3152 O.3     1  UNL1       -0.2976
     12 C           3.6159   33.1167    6.1125 C.3     1  UNL1        0.2253
     13 C           3.1750   31.7484    6.6762 C.2     1  UNL1        0.2719
     14 O           2.8239   30.7642    6.0389 O.2     1  UNL1       -0.2704
     15 N           3.1849   31.8206    8.0627 N.am    1  UNL1       -0.2271
     16 H           5.2969   33.7103    9.2969 H       1  UNL1        0.2145
     17 N           4.9978   33.2282    5.6966 N.am    1  UNL1       -0.2787
     18 C           5.6125   32.4369    4.7564 C.2     1  UNL1        0.2293
     19 O           5.0439   31.5364    4.1524 O.2     1  UNL1       -0.2746
     20 H           5.5786   33.7464    6.3386 H       1  UNL1        0.1519
     21 C           7.1066   32.7395    4.5732 C.3     1  UNL1        0.1141
     22 C           7.9379   32.0387    5.6309 C.2     1  UNL1       -0.0190
     23 C           8.7054   32.7130    6.5148 C.2     1  UNL1       -0.0112
     24 C           9.5359   32.0236    7.5302 C.ar    1  UNL1       -0.0019
     25 C           9.6425   30.6457    7.7753 C.ar    1  UNL1       -0.0002
     26 C          10.4861   30.1503    8.7803 C.ar    1  UNL1        0.0015
     27 C          11.2479   31.0041    9.5881 C.ar    1  UNL1        0.0170
     28 C          11.1332   32.3723    9.3390 C.ar    1  UNL1        0.0563
     29 N          11.7270   33.4628    9.9362 N.ar    1  UNL1       -0.3523
     30 H          12.3764   33.4115   10.7084 H       1  UNL1        0.1660
     31 C          11.3257   34.6226    9.3163 C.ar    1  UNL1        0.0681
     32 C          10.4561   34.2733    8.3083 C.ar    1  UNL1       -0.0021
     33 C          10.3124   32.8696    8.3364 C.ar    1  UNL1        0.0128
     34 C           9.7656   35.0871    7.2799 C.3     1  UNL1        0.0484
     35 C           8.6899   34.2660    6.4838 C.3     1  UNL1        0.0843
     36 N           8.5282   34.8006    5.0949 N.3     1  UNL1       -0.2681
     37 C           9.6665   34.4858    4.2260 C.3     1  UNL1        0.0899
     38 C           7.2660   34.2771    4.5392 C.3     1  UNL1        0.0859
     39 C           1.8378   28.7894    9.8772 C.3     1  UNL1        0.0022
     40 C           2.6842   30.0648    9.8571 C.3     1  UNL1        0.0273
     41 C           4.1615   29.6995    9.7257 C.3     1  UNL1        0.0022
     42 C           2.5356   33.7282    5.1699 C.3     1  UNL1        0.0516
     43 C           1.3940   32.8047    4.7427 C.3     1  UNL1        0.0047
     44 C           3.1474   34.3738    3.9177 C.3     1  UNL1        0.0047
@<TRIPOS>BOND
     1    39    40    1
     2    40    41    1
     3    40     1    1
     4     1     2    1
     5     1    15    1
     6     2     3    2
     7     2     4   am
     8     4     5    1
     9     4     8    1
    10     5     6    1
    11     6     7    1
    12     7     8    1
    13     8     9    1
    14     9    10    1
    15     9    11    1
    16     9    15    1
    17    10    16    1
    18    11    12    1
    19    12    13    1
    20    12    42    1
    21    12    17    1
    22    17    18   am
    23    17    20    1
    24    18    19    2
    25    18    21    1
    26    21    22    1
    27    21    38    1
    28    22    23    2
    29    23    24    1
    30    23    35    1
    31    24    25   ar
    32    24    33   ar
    33    25    26   ar
    34    26    27   ar
    35    27    28   ar
    36    28    29   ar
    37    28    33   ar
    38    29    31   ar
    39    29    30    1
    40    31    32   ar
    41    32    33   ar
    42    32    34    1
    43    34    35    1
    44    35    36    1
    45    36    38    1
    46    36    37    1
    47    42    43    1
    48    42    44    1
    49    13    14    2
    50    13    15   am
#	Name:			CHEMBL1388
#	Creating user name:	trannguyen
#	Creation time:		Tue Feb  8 18:26:14 2022


#	Modifying user name:	trannguyen
#	Modification time:	Tue Feb  8 18:26:14 2022

@<TRIPOS>MOLECULE
CHEMBL1388
 16 17 0 0 0
SMALL
GASTEIGER

@<TRIPOS>ATOM
      1 O           2.1309   26.3189   10.6647 O.3     1  UNL1       -0.5055
      2 C           2.5238   27.6078   10.4544 C.ar    1  UNL1        0.1339
      3 C           1.6260   28.6652   10.5581 C.ar    1  UNL1        0.0397
      4 C           2.0755   29.9664   10.3145 C.ar    1  UNL1        0.0400
      5 C           3.4026   30.2109    9.9520 C.ar    1  UNL1        0.1393
      6 C           4.3013   29.1423    9.8844 C.ar    1  UNL1        0.0400
      7 C           3.8548   27.8388   10.1332 C.ar    1  UNL1        0.0397
      8 H           1.1751   26.3087   10.8342 H       1  UNL1        0.2922
      9 O           3.7145   31.5253    9.7236 O.3     1  UNL1       -0.4706
     10 C           2.7794   32.2559    8.9252 C.3     1  UNL1        0.2320
     11 C           3.0714   32.0235    7.4574 C.ar    1  UNL1        0.0212
     12 C           2.1284   31.3877    6.6355 C.ar    1  UNL1       -0.0007
     13 C           2.3746   31.2112    5.2711 C.ar    1  UNL1       -0.0002
     14 C           3.5658   31.6674    4.7105 C.ar    1  UNL1       -0.0000
     15 C           4.5146   32.2941    5.5156 C.ar    1  UNL1       -0.0002
     16 C           4.2702   32.4711    6.8807 C.ar    1  UNL1       -0.0007
@<TRIPOS>BOND
     1     1     2    1
     2     1     8    1
     3     2     3   ar
     4     2     7   ar
     5     3     4   ar
     6     4     5   ar
     7     5     9    1
     8     5     6   ar
     9     9    10    1
    10    10    11    1
    11    11    12   ar
    12    11    16   ar
    13    12    13   ar
    14    13    14   ar
    15    14    15   ar
    16    15    16   ar
    17     6     7   ar
#	Name:			CHEMBL1390
#	Creating user name:	trannguyen
#	Creation time:		Tue Feb  8 18:26:14 2022


#	Modifying user name:	trannguyen
#	Modification time:	Tue Feb  8 18:26:14 2022

@<TRIPOS>MOLECULE
CHEMBL1390
 26 29 0 0 0
SMALL
GASTEIGER

@<TRIPOS>ATOM
      1 C           9.4966   33.5947    9.1140 C.3     1  UNL1        0.1388
      2 O          10.5570   33.3331    8.1768 O.3     1  UNL1       -0.3798
      3 C           9.1876   35.0865    9.0348 C.3     1  UNL1        0.0341
      4 C           7.7467   35.2065    9.5000 C.3     1  UNL1        0.0029
      5 C           7.0299   33.9411    8.9936 C.3     1  UNL1        0.0027
      6 C           5.9808   33.4048    9.9932 C.3     1  UNL1        0.0007
      7 C           4.8817   34.4108   10.3708 C.3     1  UNL1        0.0040
      8 C           3.7698   34.5239    9.3278 C.3     1  UNL1        0.0184
      9 C           2.8184   35.6611    9.7277 C.3     1  UNL1        0.0043
     10 C           3.1274   33.1531    9.1251 C.2     1  UNL1       -0.0423
     11 C           1.8061   32.9385    9.2803 C.2     1  UNL1        0.0289
     12 C           1.1605   31.6467    8.9422 C.2     1  UNL1        0.1725
     13 O          -0.0480   31.5128    9.1189 O.2     1  UNL1       -0.2914
     14 C           2.0008   30.5798    8.2962 C.3     1  UNL1        0.0694
     15 C           3.4218   30.6403    8.8312 C.3     1  UNL1        0.0118
     16 C           4.0939   32.0420    8.6787 C.3     1  UNL1        0.0157
     17 C           4.3846   32.2777    7.1784 C.3     1  UNL1        0.0041
     18 C           5.3881   32.0280    9.5909 C.3     1  UNL1        0.0035
     19 C           6.4780   31.0342    9.1172 C.3     1  UNL1        0.0004
     20 C           7.9047   31.5407    9.3364 C.3     1  UNL1        0.0027
     21 C           8.1611   32.9082    8.6592 C.3     1  UNL1        0.0289
     22 C           8.1836   32.6929    7.1195 C.3     1  UNL1        0.0028
     23 H          10.9675   32.4877    8.4558 H       1  UNL1        0.2108
     24 C           9.4830   33.5971   11.7667 C.3     1  UNL1        0.0748
     25 C          10.0778   33.1210   10.4696 C.2     1  UNL1        0.1749
     26 O          11.0142   32.3101   10.4798 O.2     1  UNL1       -0.2936
@<TRIPOS>BOND
     1    24    25    1
     2    25    26    2
     3     1     3    1
     4     1    21    1
     5     1     2    1
     6     1    25    1
     7     2    23    1
     8     3     4    1
     9     4     5    1
    10     5     6    1
    11     5    21    1
    12     6     7    1
    13     6    18    1
    14     7     8    1
    15     8    10    1
    16     8     9    1
    17    10    11    2
    18    10    16    1
    19    11    12    1
    20    12    14    1
    21    12    13    2
    22    14    15    1
    23    15    16    1
    24    16    18    1
    25    16    17    1
    26    18    19    1
    27    19    20    1
    28    20    21    1
    29    21    22    1
#	Name:			CHEMBL1393
#	Creating user name:	trannguyen
#	Creation time:		Tue Feb  8 18:26:14 2022


#	Modifying user name:	trannguyen
#	Modification time:	Tue Feb  8 18:26:14 2022

@<TRIPOS>MOLECULE
CHEMBL1393
 29 33 0 0 0
SMALL
GASTEIGER

@<TRIPOS>ATOM
      1 C           6.5515   32.2473    6.5894 C.3     1  UNL1        0.0586
      2 C           5.1411   32.8465    6.5322 C.3     1  UNL1        0.0333
      3 C           4.1994   32.0812    7.4450 C.2     1  UNL1       -0.0411
      4 C           3.0308   31.6233    6.9565 C.2     1  UNL1        0.0290
      5 C           2.0422   30.9058    7.7978 C.2     1  UNL1        0.1725
      6 O           0.9523   30.6035    7.3170 O.2     1  UNL1       -0.2914
      7 C           2.3810   30.6351    9.2401 C.3     1  UNL1        0.0694
      8 C           3.8890   30.6073    9.4571 C.3     1  UNL1        0.0118
      9 C           4.6341   31.8667    8.9023 C.3     1  UNL1        0.0157
     10 C           4.1650   33.0887    9.7197 C.3     1  UNL1        0.0041
     11 C           6.1911   31.5750    9.0067 C.3     1  UNL1        0.0043
     12 C           6.7811   31.5810   10.4428 C.3     1  UNL1        0.0004
     13 C           7.2904   32.9411   10.9492 C.3     1  UNL1        0.0034
     14 C           8.2068   33.6591    9.9416 C.3     1  UNL1        0.0337
     15 C           9.5477   32.8707    9.8403 C.3     1  UNL1        0.0035
     16 C           7.4436   33.7666    8.5960 C.3     1  UNL1        0.0042
     17 C           8.2743   34.7647    7.7947 C.3     1  UNL1        0.0037
     18 C           8.8730   35.7274    8.8271 C.3     1  UNL1        0.0401
     19 C           8.5302   35.1567   10.2285 C.3     1  UNL1        0.1362
     20 C           7.4610   35.9887   10.9248 C.3     1  UNL1        0.0517
     21 C           8.2607   37.1559   11.4659 C.3     1  UNL1        0.1131
     22 C           9.5821   36.5103   11.7397 C.2     1  UNL1        0.3169
     23 O          10.4822   36.9876   12.4221 O.2     1  UNL1       -0.2501
     24 O           9.6636   35.3136   11.0920 O.3     1  UNL1       -0.4557
     25 C           7.1121   32.3726    8.0237 C.3     1  UNL1        0.0111
     26 S           7.5971   32.9138    5.2349 S.3     1  UNL1       -0.0777
     27 C           6.4079   31.0810    3.5548 C.3     1  UNL1        0.0845
     28 C           6.6145   32.5436    3.8129 C.2     1  UNL1        0.1992
     29 O           6.1279   33.4051    3.0916 O.2     1  UNL1       -0.2845
@<TRIPOS>BOND
     1    27    28    1
     2    28    29    2
     3    28    26    1
     4    26     1    1
     5     1     2    1
     6     1    25    1
     7     2     3    1
     8     3     4    2
     9     3     9    1
    10     4     5    1
    11     5     6    2
    12     5     7    1
    13     7     8    1
    14     8     9    1
    15     9    10    1
    16     9    11    1
    17    11    12    1
    18    11    25    1
    19    12    13    1
    20    13    14    1
    21    14    15    1
    22    14    16    1
    23    14    19    1
    24    16    17    1
    25    16    25    1
    26    17    18    1
    27    19    18    1
    28    19    20    1
    29    19    24    1
    30    20    21    1
    31    21    22    1
    32    22    23    2
    33    22    24    1
#	Name:			CHEMBL1395
#	Creating user name:	trannguyen
#	Creation time:		Tue Feb  8 18:26:14 2022


#	Modifying user name:	trannguyen
#	Modification time:	Tue Feb  8 18:26:14 2022

@<TRIPOS>MOLECULE
CHEMBL1395
 23 26 0 0 0
SMALL
GASTEIGER

@<TRIPOS>ATOM
      1 C           2.6991   32.2552    4.9251 C.3     1  UNL1        0.0293
      2 C           3.5312   33.1226    5.8807 C.3     1  UNL1        0.0883
      3 O           2.9396   34.4361    5.8523 O.3     1  UNL1       -0.3867
      4 C           4.8535   33.2905    5.0936 C.3     1  UNL1        0.0269
      5 C           5.5465   32.1366    5.6962 C.3     1  UNL1        0.0025
      6 C           5.5564   32.6667    7.1385 C.3     1  UNL1        0.0023
      7 C           6.7175   31.8725    7.7125 C.3     1  UNL1        0.0007
      8 C           7.9649   32.5664    7.1023 C.3     1  UNL1        0.0044
      9 C           8.1835   33.9197    7.7427 C.3     1  UNL1        0.0221
     10 C           8.4883   33.5214    9.1258 C.2     1  UNL1       -0.0420
     11 C           9.8010   33.2442    9.2978 C.2     1  UNL1        0.0289
     12 C          10.0530   34.0961   10.4423 C.2     1  UNL1        0.1725
     13 O          10.7916   35.1017   10.3420 O.2     1  UNL1       -0.2914
     14 C           9.3540   33.6797   11.6923 C.3     1  UNL1        0.0694
     15 C           8.1260   32.7011   11.4037 C.3     1  UNL1        0.0118
     16 C           7.3580   32.9646   10.0234 C.3     1  UNL1        0.0157
     17 C           6.2523   33.9686   10.3716 C.3     1  UNL1        0.0041
     18 C           6.6816   31.7119    9.2328 C.3     1  UNL1        0.0035
     19 C           5.2222   31.1121    9.4521 C.3     1  UNL1        0.0004
     20 C           3.9395   31.4574    8.4723 C.3     1  UNL1        0.0023
     21 C           4.0551   32.6870    7.4877 C.3     1  UNL1        0.0226
     22 C           3.3844   33.8101    8.3413 C.3     1  UNL1        0.0023
     23 H           3.2383   34.8959    5.0454 H       1  UNL1        0.2102
@<TRIPOS>BOND
     1     2     4    1
     2     2    21    1
     3     2     3    1
     4     2     1    1
     5     3    23    1
     6     4     5    1
     7     5     6    1
     8     6     7    1
     9     6    21    1
    10     7     8    1
    11     7    18    1
    12     8     9    1
    13     9    10    1
    14    10    11    2
    15    10    16    1
    16    11    12    1
    17    12    14    1
    18    12    13    2
    19    14    15    1
    20    15    16    1
    21    16    18    1
    22    16    17    1
    23    18    19    1
    24    19    20    1
    25    20    21    1
    26    21    22    1
#	Name:			CHEMBL139835
#	Creating user name:	trannguyen
#	Creation time:		Tue Feb  8 18:26:14 2022


#	Modifying user name:	trannguyen
#	Modification time:	Tue Feb  8 18:26:14 2022

@<TRIPOS>MOLECULE
CHEMBL139835
 29 33 0 0 0
SMALL
GASTEIGER

@<TRIPOS>ATOM
      1 C           3.9747   32.7770    9.1088 C.3     1  UNL1        0.1859
      2 C           4.1388   31.9176    7.8340 C.3     1  UNL1        0.0474
      3 C           5.4720   32.3606    7.1825 C.3     1  UNL1        0.0045
      4 C           6.1032   33.3829    8.1451 C.3     1  UNL1        0.0078
      5 C           7.6350   33.5705    8.1858 C.3     1  UNL1        0.0233
      6 C           8.1932   33.8932    6.8317 C.2     1  UNL1       -0.0154
      7 C           9.3840   33.4771    6.3854 C.2     1  UNL1        0.0495
      8 CL          9.8812   34.0042    4.8071 Cl      1  UNL1       -0.0829
      9 C          10.2457   32.5991    7.1727 C.2     1  UNL1       -0.0097
     10 C          11.5808   32.6071    6.9939 C.2     1  UNL1        0.0340
     11 C          12.5210   31.7703    7.7639 C.2     1  UNL1        0.1724
     12 O          13.6863   31.6436    7.4396 O.2     1  UNL1       -0.2914
     13 C          11.9913   31.1363    8.9832 C.3     1  UNL1        0.0622
     14 C          11.3096   29.7996    8.9057 C.3     1  UNL1        0.0084
     15 C          10.5034   31.0461    9.2137 C.3     1  UNL1        0.0115
     16 C           9.5214   31.6938    8.2029 C.3     1  UNL1        0.0205
     17 C           8.7965   30.5758    7.4204 C.3     1  UNL1        0.0044
     18 C           8.4853   32.5745    9.0270 C.3     1  UNL1        0.0078
     19 C           7.7024   31.8110   10.1311 C.3     1  UNL1        0.0008
     20 C           6.1832   31.7251   10.0025 C.3     1  UNL1        0.0038
     21 C           5.4907   33.0234    9.5058 C.3     1  UNL1        0.0404
     22 C           5.7102   34.1710   10.5124 C.3     1  UNL1        0.0039
     23 C           3.2246   34.1308    8.8542 C.2     1  UNL1        0.1869
     24 C           2.4366   34.7692    9.9779 C.3     1  UNL1        0.0760
     25 O           3.3114   34.7107    7.7658 O.2     1  UNL1       -0.2924
     26 O           3.3191   32.0295   10.1625 O.3     1  UNL1       -0.4486
     27 C           3.0365   29.6713   10.0623 C.3     1  UNL1        0.1212
     28 C           2.4535   31.0345    9.7937 C.2     1  UNL1        0.3177
     29 O           1.3707   31.2074    9.2646 O.2     1  UNL1       -0.2501
@<TRIPOS>BOND
     1    27    28    1
     2    28    29    2
     3    28    26    1
     4     1     2    1
     5     1    21    1
     6     1    26    1
     7     1    23    1
     8    23    24    1
     9    23    25    2
    10     2     3    1
    11     3     4    1
    12     4     5    1
    13     4    21    1
    14     5     6    1
    15     5    18    1
    16     6     7    2
    17     7     9    1
    18     7     8    1
    19     9    10    2
    20     9    16    1
    21    10    11    1
    22    11    13    1
    23    11    12    2
    24    13    14    1
    25    13    15    1
    26    14    15    1
    27    15    16    1
    28    16    18    1
    29    16    17    1
    30    18    19    1
    31    19    20    1
    32    20    21    1
    33    21    22    1
#	Name:			CHEMBL1399
#	Creating user name:	trannguyen
#	Creation time:		Tue Feb  8 18:26:14 2022


#	Modifying user name:	trannguyen
#	Modification time:	Tue Feb  8 18:26:14 2022

@<TRIPOS>MOLECULE
CHEMBL1399
 22 23 0 0 0
SMALL
GASTEIGER

@<TRIPOS>ATOM
      1 C           3.8931   32.1147    6.6147 C.ar    1  UNL1       -0.0102
      2 C           2.9637   31.5732    7.5491 C.ar    1  UNL1       -0.0057
      3 C           3.3214   31.3288    8.8846 C.ar    1  UNL1        0.0016
      4 C           4.6475   31.5850    9.2039 C.ar    1  UNL1       -0.0057
      5 C           5.5841   32.2207    8.3864 C.ar    1  UNL1       -0.0102
      6 C           5.1845   32.4745    7.0765 C.ar    1  UNL1       -0.0066
      7 C           3.4591   33.7639    4.7312 C.3     1  UNL1        0.0196
      8 C           3.5195   32.2746    5.1205 C.3     1  UNL1        0.0980
      9 C           2.1419   31.6282    4.8647 C.3     1  UNL1        0.0196
     10 C           4.4920   31.6251    4.2049 C.1     1  UNL1        0.0752
     11 N           5.2382   31.0944    3.4760 N.1     1  UNL1       -0.1956
     12 C           6.9653   32.5870    8.9765 C.3     1  UNL1        0.0980
     13 C           7.9560   31.4278    8.6862 C.3     1  UNL1        0.0196
     14 C           7.5419   33.8716    8.3374 C.3     1  UNL1        0.0196
     15 C           6.9239   32.8135   10.4283 C.1     1  UNL1        0.0752
     16 N           6.8893   33.0313   11.5778 N.1     1  UNL1       -0.1956
     17 C           2.3340   30.7528    9.8945 C.3     1  UNL1        0.1556
     18 N           2.4660   29.3579   10.3812 N.ar    1  UNL1       -0.2255
     19 C           3.3620   28.3551   10.1455 C.ar    1  UNL1        0.1975
     20 N           3.0089   27.2510   10.7568 N.ar    1  UNL1       -0.2007
     21 C           1.9528   27.6572   11.4997 C.ar    1  UNL1        0.2210
     22 N           1.5766   28.9262   11.3157 N.ar    1  UNL1       -0.1448
@<TRIPOS>BOND
     1     7     8    1
     2     8     9    1
     3     8    10    1
     4     8     1    1
     5    10    11    3
     6     1     2   ar
     7     1     6   ar
     8     2     3   ar
     9     3    17    1
    10     3     4   ar
    11    17    18    1
    12    18    19   ar
    13    18    22   ar
    14    19    20   ar
    15    20    21   ar
    16    21    22   ar
    17     4     5   ar
    18     5    12    1
    19     5     6   ar
    20    12    13    1
    21    12    14    1
    22    12    15    1
    23    15    16    3
#	Name:			CHEMBL139
#	Creating user name:	trannguyen
#	Creation time:		Tue Feb  8 18:26:14 2022


#	Modifying user name:	trannguyen
#	Modification time:	Tue Feb  8 18:26:14 2022

@<TRIPOS>MOLECULE
CHEMBL139
 21 22 0 0 0
SMALL
GASTEIGER

@<TRIPOS>ATOM
      1 C           4.2612   32.2641    6.8142 C.ar    1  UNL1        0.0023
      2 C           4.5607   32.4019    5.4443 C.ar    1  UNL1       -0.0025
      3 C           3.7181   31.8711    4.4727 C.ar    1  UNL1       -0.0002
      4 C           2.5246   31.2717    4.8530 C.ar    1  UNL1        0.0013
      5 C           2.1899   31.1718    6.2055 C.ar    1  UNL1        0.0143
      6 C           3.0717   31.6006    7.2041 C.ar    1  UNL1        0.0448
      7 N           2.8470   31.3281    8.5733 N.pl3   1  UNL1       -0.3114
      8 H           2.2693   32.0578    8.9985 H       1  UNL1        0.1523
      9 C           2.7259   30.1164    9.3202 C.ar    1  UNL1        0.0697
     10 C           1.4219   29.6724    9.6572 C.ar    1  UNL1        0.0718
     11 CL          0.0341   30.6078    9.1982 Cl      1  UNL1       -0.0809
     12 C           1.1911   28.4951   10.3801 C.ar    1  UNL1        0.0127
     13 C           2.2629   27.7156   10.7941 C.ar    1  UNL1        0.0018
     14 C           3.5594   28.1492   10.5319 C.ar    1  UNL1        0.0127
     15 C           3.7933   29.3515    9.8368 C.ar    1  UNL1        0.0718
     16 CL          5.4430   29.8806    9.8156 Cl      1  UNL1       -0.0809
     17 C           5.2345   32.8645    7.8119 C.3     1  UNL1        0.1369
     18 O           4.1706   34.7785    8.7805 O.2     1  UNL1       -0.2499
     19 C           4.6912   33.6749    8.9648 C.2     1  UNL1        0.3183
     20 O           4.8006   33.1680   10.2044 O.3     1  UNL1       -0.4799
     21 H           5.1172   32.2420   10.2357 H       1  UNL1        0.2951
@<TRIPOS>BOND
     1    18    19    2
     2    19    20    1
     3    19    17    1
     4    20    21    1
     5    17     1    1
     6     1     2   ar
     7     1     6   ar
     8     2     3   ar
     9     3     4   ar
    10     4     5   ar
    11     5     6   ar
    12     6     7    1
    13     7     9    1
    14     7     8    1
    15     9    10   ar
    16     9    15   ar
    17    10    11    1
    18    10    12   ar
    19    12    13   ar
    20    13    14   ar
    21    14    15   ar
    22    15    16    1
#	Name:			CHEMBL13
#	Creating user name:	trannguyen
#	Creation time:		Tue Feb  8 18:26:14 2022


#	Modifying user name:	trannguyen
#	Modification time:	Tue Feb  8 18:26:14 2022

@<TRIPOS>MOLECULE
CHEMBL13
 21 21 0 0 0
SMALL
GASTEIGER

@<TRIPOS>ATOM
      1 O           5.3849   31.4399    3.1302 O.3     1  UNL1       -0.4728
      2 C           2.9748   31.7144    6.5324 C.ar    1  UNL1       -0.0195
      3 C           2.4899   31.1784    5.3264 C.ar    1  UNL1       -0.0011
      4 C           3.3103   31.1485    4.1930 C.ar    1  UNL1        0.0366
      5 C           4.6039   31.6522    4.2378 C.ar    1  UNL1        0.1387
      6 C           5.0328   32.3265    5.3881 C.ar    1  UNL1        0.0366
      7 C           4.2219   32.3402    6.5280 C.ar    1  UNL1       -0.0011
      8 C           2.1862   31.5862    7.8139 C.3     1  UNL1        0.0584
      9 C           3.0449   31.1171    8.9957 C.3     1  UNL1        0.1469
     10 C           1.6190   32.7015   10.0127 C.3     1  UNL1        0.1741
     11 O           2.4311   31.5507   10.2124 O.3     1  UNL1       -0.3507
     12 C           6.7394   31.9013    3.2520 C.3     1  UNL1        0.2358
     13 C           7.6141   31.4290    2.0806 C.3     1  UNL1        0.1697
     14 O           7.2706   30.0895    1.7073 O.3     1  UNL1       -0.3793
     15 H           6.5031   30.1797    1.1093 H       1  UNL1        0.2106
     16 C           7.6257   32.3305    0.8281 C.3     1  UNL1        0.1020
     17 N           7.5244   31.6469   -0.4751 N.3     1  UNL1       -0.2964
     18 H           6.5329   31.5119   -0.6986 H       1  UNL1        0.1233
     19 C           8.1632   32.4370   -1.5508 C.3     1  UNL1        0.0541
     20 C           7.3856   33.7190   -1.8717 C.3     1  UNL1        0.0171
     21 C           9.6009   32.8099   -1.1725 C.3     1  UNL1        0.0171
@<TRIPOS>BOND
     1    10    11    1
     2    11     9    1
     3     9     8    1
     4     8     2    1
     5     2     3   ar
     6     2     7   ar
     7     3     4   ar
     8     4     5   ar
     9     5     1    1
    10     5     6   ar
    11     1    12    1
    12    12    13    1
    13    13    14    1
    14    13    16    1
    15    14    15    1
    16    16    17    1
    17    17    19    1
    18    17    18    1
    19    19    20    1
    20    19    21    1
    21     6     7   ar
#	Name:			CHEMBL1400945
#	Creating user name:	trannguyen
#	Creation time:		Tue Feb  8 18:26:14 2022


#	Modifying user name:	trannguyen
#	Modification time:	Tue Feb  8 18:26:14 2022

@<TRIPOS>MOLECULE
CHEMBL1400945
 26 29 0 0 0
SMALL
GASTEIGER

@<TRIPOS>ATOM
      1 C           8.1775   33.5085    7.9017 C.3     1  UNL1        0.0716
      2 C           8.1130   32.7372    6.5648 C.3     1  UNL1        0.0983
      3 C           7.9741   31.2565    6.9237 C.3     1  UNL1        0.0156
      4 C           7.5794   31.1742    8.4071 C.3     1  UNL1        0.0018
      5 C           6.0480   31.0271    8.6271 C.3     1  UNL1        0.0047
      6 C           5.7621   30.0105    9.7573 C.3     1  UNL1        0.0254
      7 C           4.3040   29.9111   10.0857 C.2     1  UNL1       -0.0345
      8 C           3.3923   30.8375    9.7404 C.2     1  UNL1       -0.0467
      9 C           1.9145   30.5470    9.8532 C.3     1  UNL1        0.0509
     10 C           1.2898   30.5058    8.4509 C.3     1  UNL1        0.1145
     11 O          -0.1288   30.3987    8.5510 O.3     1  UNL1       -0.3841
     12 C           1.6253   31.7504    7.6233 C.3     1  UNL1        0.0299
     13 C           3.1265   32.0772    7.6238 C.3     1  UNL1        0.0062
     14 C           3.7541   32.1542    9.0504 C.3     1  UNL1        0.0150
     15 C           3.1305   33.3629    9.7955 C.3     1  UNL1        0.0040
     16 C           5.3221   32.3523    8.9329 C.3     1  UNL1        0.0038
     17 C           5.9715   33.0491   10.1523 C.3     1  UNL1        0.0003
     18 C           7.4857   32.8614   10.3016 C.3     1  UNL1        0.0005
     19 C           8.2359   32.4336    9.0303 C.3     1  UNL1        0.0076
     20 C           9.6920   32.0920    9.4280 C.3     1  UNL1        0.0005
     21 H          -0.3256   29.5653    9.0117 H       1  UNL1        0.2103
     22 C          10.3513   34.3718    6.7885 C.3     1  UNL1        0.0723
     23 C           9.3392   34.5011    7.8974 C.2     1  UNL1        0.1517
     24 O           9.4438   35.3866    8.7460 O.2     1  UNL1       -0.2960
     25 C           6.9755   33.1989    5.7496 C.1     1  UNL1        0.0725
     26 N           6.0618   33.5487    5.1257 N.1     1  UNL1       -0.1959
@<TRIPOS>BOND
     1    22    23    1
     2    23    24    2
     3    23     1    1
     4     1     2    1
     5     1    19    1
     6     2     3    1
     7     2    25    1
     8    25    26    3
     9     3     4    1
    10     4     5    1
    11     4    19    1
    12     5     6    1
    13     5    16    1
    14     6     7    1
    15     7     8    2
    16     8     9    1
    17     8    14    1
    18     9    10    1
    19    10    12    1
    20    10    11    1
    21    11    21    1
    22    12    13    1
    23    13    14    1
    24    14    16    1
    25    14    15    1
    26    16    17    1
    27    17    18    1
    28    18    19    1
    29    19    20    1
#	Name:			CHEMBL1403281
#	Creating user name:	trannguyen
#	Creation time:		Tue Feb  8 18:26:14 2022


#	Modifying user name:	trannguyen
#	Modification time:	Tue Feb  8 18:26:14 2022

@<TRIPOS>MOLECULE
CHEMBL1403281
 45 51 0 0 0
SMALL
GASTEIGER

@<TRIPOS>ATOM
      1 C           2.3762   31.8341    7.1053 C.3     1  UNL1        0.1561
      2 C           1.4920   30.9949    8.0787 C.2     1  UNL1        0.2440
      3 O           0.2803   30.8713    7.9253 O.2     1  UNL1       -0.2731
      4 N           2.1848   30.3080    9.0520 N.am    1  UNL1       -0.2734
      5 C           1.5873   29.4015   10.0150 C.3     1  UNL1        0.0937
      6 C           2.7721   28.6000   10.5473 C.3     1  UNL1        0.0234
      7 C           3.9514   29.5693   10.3990 C.3     1  UNL1        0.0285
      8 C           3.6420   30.2392    9.0596 C.3     1  UNL1        0.1465
      9 C           4.3281   31.5949    8.7289 C.3     1  UNL1        0.2754
     10 O           5.5863   31.3164    8.1558 O.3     1  UNL1       -0.3478
     11 O           4.5600   32.4012    9.8860 O.3     1  UNL1       -0.2976
     12 C           4.2062   33.7419    9.5668 C.3     1  UNL1        0.2253
     13 C           3.5219   33.6996    8.1966 C.2     1  UNL1        0.2719
     14 O           2.9796   34.6203    7.6325 O.2     1  UNL1       -0.2704
     15 N           3.5688   32.3675    7.7888 N.am    1  UNL1       -0.2271
     16 H           5.9153   32.1840    7.8442 H       1  UNL1        0.2145
     17 N           5.3700   34.6019    9.5672 N.am    1  UNL1       -0.2787
     18 C           6.3513   34.6350   10.5282 C.2     1  UNL1        0.2293
     19 O           6.3214   33.9062   11.5193 O.2     1  UNL1       -0.2746
     20 H           5.2443   35.4725    9.0670 H       1  UNL1        0.1519
     21 C           7.5008   35.6371   10.2699 C.3     1  UNL1        0.1141
     22 C           7.7330   35.8470    8.7898 C.2     1  UNL1       -0.0190
     23 C           8.6010   35.0441    8.1411 C.2     1  UNL1       -0.0112
     24 C           9.0791   35.2997    6.7685 C.ar    1  UNL1       -0.0019
     25 C           8.7239   36.3462    5.9067 C.ar    1  UNL1       -0.0002
     26 C           9.3491   36.4956    4.6603 C.ar    1  UNL1        0.0015
     27 C          10.3530   35.6171    4.2285 C.ar    1  UNL1        0.0170
     28 C          10.6872   34.5707    5.0895 C.ar    1  UNL1        0.0563
     29 N          11.6059   33.5493    4.9802 N.ar    1  UNL1       -0.3523
     30 H          12.2192   33.4114    4.1894 H       1  UNL1        0.1660
     31 C          11.5495   32.7356    6.0883 C.ar    1  UNL1        0.0681
     32 C          10.5894   33.2490    6.9285 C.ar    1  UNL1       -0.0021
     33 C          10.0625   34.4069    6.3164 C.ar    1  UNL1        0.0128
     34 C          10.0489   32.7703    8.2201 C.3     1  UNL1        0.0484
     35 C           9.1779   33.8570    8.9461 C.3     1  UNL1        0.0843
     36 N           9.7341   34.3090   10.2613 N.3     1  UNL1       -0.2681
     37 C          11.0655   34.9137   10.0982 C.3     1  UNL1        0.0899
     38 C           8.8431   35.2786   10.9663 C.3     1  UNL1        0.0859
     39 C           3.1747   34.2692   10.6099 C.3     1  UNL1        0.0516
     40 C           1.8455   33.4949   10.5932 C.3     1  UNL1        0.0047
     41 C           2.8469   35.7573   10.4158 C.3     1  UNL1        0.0047
     42 C           2.6962   31.0204    5.8448 C.3     1  UNL1        0.0294
     43 C           1.3007   32.7792    4.7111 C.3     1  UNL1        0.0001
     44 C           2.4013   31.7334    4.5089 C.3     1  UNL1        0.0021
     45 C           3.6275   32.4179    3.9019 C.3     1  UNL1        0.0001
@<TRIPOS>BOND
     1    43    44    1
     2    44    45    1
     3    44    42    1
     4    42     1    1
     5     1     2    1
     6     1    15    1
     7     2     3    2
     8     2     4   am
     9     4     5    1
    10     4     8    1
    11     5     6    1
    12     6     7    1
    13     7     8    1
    14     8     9    1
    15     9    10    1
    16     9    11    1
    17     9    15    1
    18    10    16    1
    19    11    12    1
    20    12    13    1
    21    12    39    1
    22    12    17    1
    23    17    18   am
    24    17    20    1
    25    18    19    2
    26    18    21    1
    27    21    22    1
    28    21    38    1
    29    22    23    2
    30    23    24    1
    31    23    35    1
    32    24    25   ar
    33    24    33   ar
    34    25    26   ar
    35    26    27   ar
    36    27    28   ar
    37    28    29   ar
    38    28    33   ar
    39    29    31   ar
    40    29    30    1
    41    31    32   ar
    42    32    33   ar
    43    32    34    1
    44    34    35    1
    45    35    36    1
    46    36    38    1
    47    36    37    1
    48    39    40    1
    49    39    41    1
    50    13    14    2
    51    13    15   am
#	Name:			CHEMBL14053
#	Creating user name:	trannguyen
#	Creation time:		Tue Feb  8 18:26:14 2022


#	Modifying user name:	trannguyen
#	Modification time:	Tue Feb  8 18:26:14 2022

@<TRIPOS>MOLECULE
CHEMBL14053
 8 7 0 0 0
SMALL
GASTEIGER

@<TRIPOS>ATOM
      1 O           2.0460   27.9664   12.5502 O.2     1  UNL1       -0.2462
      2 C           1.6119   28.0924   11.4089 C.2     1  UNL1        0.3566
      3 O           0.2751   27.9406   11.1774 O.3     1  UNL1       -0.4777
      4 H           0.0132   28.0634   10.2394 H       1  UNL1        0.2952
      5 C           2.4839   28.3705   10.1696 C.3     1  UNL1        0.2873
      6 CL          2.8783   26.8121    9.4066 Cl      1  UNL1       -0.0717
      7 CL          1.5806   29.3826    8.9966 Cl      1  UNL1       -0.0717
      8 CL          3.9609   29.2271   10.6610 Cl      1  UNL1       -0.0717
@<TRIPOS>BOND
     1     1     2    2
     2     2     3    1
     3     2     5    1
     4     3     4    1
     5     5     6    1
     6     5     7    1
     7     5     8    1
#	Name:			CHEMBL1405
#	Creating user name:	trannguyen
#	Creation time:		Tue Feb  8 18:26:14 2022


#	Modifying user name:	trannguyen
#	Modification time:	Tue Feb  8 18:26:14 2022

@<TRIPOS>MOLECULE
CHEMBL1405
 21 24 0 0 0
SMALL
GASTEIGER

@<TRIPOS>ATOM
      1 C           2.5446   33.7776    4.3024 C.3     1  UNL1        0.0073
      2 C           2.9142   32.6484    5.2870 C.3     1  UNL1        0.0515
      3 C           1.6459   31.8671    5.5913 C.3     1  UNL1        0.0073
      4 C           1.8347   30.8458    6.6863 C.3     1  UNL1        0.0048
      5 C           2.2826   31.5137    7.9955 C.3     1  UNL1        0.0220
      6 C           2.2695   30.4348    9.0716 C.ar    1  UNL1       -0.0263
      7 C           1.0473   29.8168    9.4066 C.ar    1  UNL1       -0.0015
      8 C           1.0042   28.7083   10.2506 C.ar    1  UNL1        0.0363
      9 C           2.1847   28.2355   10.8028 C.ar    1  UNL1        0.1333
     10 O           2.1964   27.1409   11.6158 O.3     1  UNL1       -0.5055
     11 C           3.3960   28.8639   10.5348 C.ar    1  UNL1        0.0320
     12 C           3.4517   29.9574    9.6550 C.ar    1  UNL1       -0.0231
     13 C           4.7698   30.6225    9.3836 C.3     1  UNL1        0.0261
     14 C           4.8193   31.2963    8.0112 C.3     1  UNL1        0.0050
     15 C           3.6375   32.2651    7.8170 C.3     1  UNL1        0.0048
     16 C           3.6833   33.1705    6.5274 C.3     1  UNL1        0.0073
     17 C           5.0958   33.4391    5.9527 C.3     1  UNL1        0.0082
     18 C           5.3824   32.2992    4.9733 C.3     1  UNL1        0.0645
     19 C           3.9996   31.7942    4.6413 C.2     1  UNL1        0.1498
     20 O           3.7930   30.8212    3.9349 O.2     1  UNL1       -0.2961
     21 H           1.2977   26.7740   11.6476 H       1  UNL1        0.2922
@<TRIPOS>BOND
     1     2     1    1
     2     2     3    1
     3     2    16    1
     4     2    19    1
     5     3     4    1
     6     4     5    1
     7     5     6    1
     8     5    15    1
     9     6     7   ar
    10     6    12   ar
    11     7     8   ar
    12     8     9   ar
    13     9    10    1
    14     9    11   ar
    15    10    21    1
    16    11    12   ar
    17    12    13    1
    18    13    14    1
    19    14    15    1
    20    15    16    1
    21    16    17    1
    22    17    18    1
    23    18    19    1
    24    19    20    2
#	Name:			CHEMBL14060
#	Creating user name:	trannguyen
#	Creation time:		Tue Feb  8 18:26:14 2022


#	Modifying user name:	trannguyen
#	Modification time:	Tue Feb  8 18:26:14 2022

@<TRIPOS>MOLECULE
CHEMBL14060
 8 8 0 0 0
SMALL
GASTEIGER

@<TRIPOS>ATOM
      1 O           2.1741   26.5056   11.5992 O.3     1  UNL1       -0.5055
      2 C           2.3457   27.6834   10.9338 C.ar    1  UNL1        0.1337
      3 C           1.2802   28.5494   10.7056 C.ar    1  UNL1        0.0366
      4 C           1.5016   29.7413   10.0137 C.ar    1  UNL1        0.0031
      5 C           2.7825   30.0581    9.5570 C.ar    1  UNL1        0.0002
      6 C           3.8442   29.1846    9.7941 C.ar    1  UNL1        0.0031
      7 C           3.6253   27.9935   10.4857 C.ar    1  UNL1        0.0366
      8 H           1.2324   26.4099   11.8163 H       1  UNL1        0.2922
@<TRIPOS>BOND
     1     1     2    1
     2     1     8    1
     3     2     3   ar
     4     2     7   ar
     5     3     4   ar
     6     4     5   ar
     7     5     6   ar
     8     6     7   ar
#	Name:			CHEMBL1411979
#	Creating user name:	trannguyen
#	Creation time:		Tue Feb  8 18:26:14 2022


#	Modifying user name:	trannguyen
#	Modification time:	Tue Feb  8 18:26:14 2022

@<TRIPOS>MOLECULE
CHEMBL1411979
 18 19 0 0 0
SMALL
GASTEIGER

@<TRIPOS>ATOM
      1 N           3.6647   32.1604    8.3576 N.pl3   1  UNL1       -0.2872
      2 C           3.1328   32.4482    7.0816 C.ar    1  UNL1        0.1320
      3 C           2.3446   31.5084    6.4111 C.ar    1  UNL1        0.0343
      4 C           1.7981   31.8106    5.1610 C.ar    1  UNL1        0.0045
      5 C           2.0740   33.0359    4.5872 C.ar    1  UNL1        0.0208
      6 C           2.8807   33.9083    5.2854 C.ar    1  UNL1        0.1003
      7 N           3.4043   33.6372    6.5061 N.ar    1  UNL1       -0.2292
      8 C           4.4918   33.2461    8.9430 C.3     1  UNL1        0.1098
      9 C           5.8303   32.7290    9.5430 C.3     1  UNL1        0.0939
     10 C           7.5276   32.7910   11.2556 C.3     1  UNL1        0.0897
     11 N           6.1609   33.2104   10.9128 N.3     1  UNL1       -0.2688
     12 C           6.0840   34.6703   11.0182 C.3     1  UNL1        0.0897
     13 C           2.6989   31.5276    9.2819 C.3     1  UNL1        0.1254
     14 C           3.0229   30.1065    9.6853 C.ar    1  UNL1        0.0272
     15 C           4.2524   29.4886    9.8198 C.ar    1  UNL1        0.0044
     16 C           4.1376   28.1090   10.1630 C.ar    1  UNL1        0.0072
     17 C           2.8246   27.7168   10.2878 C.ar    1  UNL1        0.0352
     18 S           1.7416   29.0142   10.0298 S.2     1  UNL1       -0.0891
@<TRIPOS>BOND
     1    10    11    1
     2    11    12    1
     3    11     9    1
     4     9     8    1
     5     8     1    1
     6     1    13    1
     7     1     2    1
     8    13    14    1
     9    14    15   ar
    10    14    18   ar
    11    15    16   ar
    12    16    17   ar
    13    17    18   ar
    14     2     3   ar
    15     2     7   ar
    16     3     4   ar
    17     4     5   ar
    18     5     6   ar
    19     6     7   ar
#	Name:			CHEMBL141343
#	Creating user name:	trannguyen
#	Creation time:		Tue Feb  8 18:26:14 2022


#	Modifying user name:	trannguyen
#	Modification time:	Tue Feb  8 18:26:14 2022

@<TRIPOS>MOLECULE
CHEMBL141343
 39 44 0 0 0
SMALL
GASTEIGER

@<TRIPOS>ATOM
      1 N           9.3482   32.8437    8.3845 N.3     1  UNL1       -0.2668
      2 C           9.4278   31.5103    7.7571 C.3     1  UNL1        0.0939
      3 C           8.6021   31.3795    6.4631 C.3     1  UNL1        0.1095
      4 N           8.9410   32.4260    5.4864 N.pl3   1  UNL1       -0.2902
      5 C           9.4314   33.7397    5.9732 C.3     1  UNL1        0.1095
      6 C          10.0323   33.7285    7.4066 C.3     1  UNL1        0.0939
      7 C           8.0049   32.5356    4.4220 C.ar    1  UNL1        0.1375
      8 C           6.6668   32.4537    4.7514 C.ar    1  UNL1        0.0687
      9 C           5.7204   32.5513    3.7534 C.ar    1  UNL1        0.1374
     10 N           6.1074   32.7741    2.4972 N.ar    1  UNL1       -0.1986
     11 C           7.4214   32.8475    2.2018 C.ar    1  UNL1        0.2224
     12 N           8.3780   32.7253    3.1447 N.ar    1  UNL1       -0.1986
     13 N           4.3698   32.4400    4.0562 N.pl3   1  UNL1       -0.2931
     14 C           3.7529   33.2267    5.1243 C.3     1  UNL1        0.0922
     15 C           2.7712   32.2614    5.7795 C.3     1  UNL1        0.0232
     16 C           2.3810   31.3429    4.6345 C.3     1  UNL1        0.0232
     17 C           3.7045   31.1541    3.8900 C.3     1  UNL1        0.0922
     18 N           7.7904   33.0565    0.9013 N.pl3   1  UNL1       -0.2781
     19 C           7.9513   31.9262    0.0070 C.3     1  UNL1        0.0937
     20 C           8.1783   32.6016   -1.3447 C.3     1  UNL1        0.0233
     21 C           7.2597   33.8127   -1.2684 C.3     1  UNL1        0.0233
     22 C           7.3535   34.2532    0.1956 C.3     1  UNL1        0.0937
     23 C           7.9680   33.3449    8.6651 C.3     1  UNL1        0.1126
     24 C           0.7605   32.7226    9.8830 C.3     1  UNL1        0.0340
     25 C           2.1130   32.0618    9.7895 C.ar    1  UNL1        0.0105
     26 C           3.2521   32.8011    9.4023 C.ar    1  UNL1        0.0107
     27 C           3.1482   34.2792    9.1146 C.3     1  UNL1        0.0340
     28 C           4.5046   32.1584    9.3535 C.ar    1  UNL1        0.1298
     29 C           4.6296   30.7775    9.6136 C.ar    1  UNL1        0.0105
     30 C           3.4944   30.0375   10.0135 C.ar    1  UNL1        0.0104
     31 C           3.6168   28.5795   10.3782 C.3     1  UNL1        0.0340
     32 C           2.2483   30.6878   10.0508 C.ar    1  UNL1        0.1252
     33 O           1.1035   29.9931   10.3475 O.3     1  UNL1       -0.5062
     34 C           5.9828   30.1136    9.5244 C.3     1  UNL1        0.0328
     35 C           7.0123   31.0178    8.8620 C.3     1  UNL1        0.0462
     36 C           6.8843   32.4574    9.4044 C.3     1  UNL1        0.1481
     37 C           7.0516   32.4459   10.9350 C.3     1  UNL1        0.0451
     38 O           5.5832   32.9614    9.0546 O.3     1  UNL1       -0.4819
     39 H           1.2339   29.0618   10.1123 H       1  UNL1        0.2922
@<TRIPOS>BOND
     1    24    25    1
     2    25    26   ar
     3    25    32   ar
     4    26    27    1
     5    26    28   ar
     6    28    29   ar
     7    28    38    1
     8    29    30   ar
     9    29    34    1
    10    30    31    1
    11    30    32   ar
    12    32    33    1
    13    33    39    1
    14    34    35    1
    15    35    36    1
    16    36    37    1
    17    36    23    1
    18    36    38    1
    19    23     1    1
    20     1     2    1
    21     1     6    1
    22     2     3    1
    23     3     4    1
    24     4     7    1
    25     4     5    1
    26     7     8   ar
    27     7    12   ar
    28     8     9   ar
    29     9    13    1
    30     9    10   ar
    31    13    14    1
    32    13    17    1
    33    14    15    1
    34    15    16    1
    35    16    17    1
    36    10    11   ar
    37    11    18    1
    38    11    12   ar
    39    18    19    1
    40    18    22    1
    41    19    20    1
    42    20    21    1
    43    21    22    1
    44     5     6    1
#	Name:			CHEMBL1413
#	Creating user name:	trannguyen
#	Creation time:		Tue Feb  8 18:26:14 2022


#	Modifying user name:	trannguyen
#	Modification time:	Tue Feb  8 18:26:14 2022

@<TRIPOS>MOLECULE
CHEMBL1413
 16 17 0 0 0
SMALL
GASTEIGER

@<TRIPOS>ATOM
      1 C           5.2970   29.4445   10.3836 C.3     1  UNL1        0.0312
      2 C           3.8937   29.6934    9.9193 C.ar    1  UNL1       -0.0158
      3 C           3.7114   30.6524    8.8401 C.ar    1  UNL1        0.0121
      4 C           2.4875   30.9377    8.3498 C.ar    1  UNL1        0.0779
      5 N           1.4116   30.2872    8.9251 N.ar    1  UNL1       -0.1495
      6 O           0.1247   30.5865    8.4253 O.3     1  UNL1       -0.4233
      7 C           1.4699   29.3656    9.9493 C.ar    1  UNL1        0.2916
      8 O           0.4805   28.8132   10.4257 O.2     1  UNL1       -0.2640
      9 C           2.8318   29.0711   10.4577 C.ar    1  UNL1        0.0595
     10 H          -0.4370   30.0098    8.9844 H       1  UNL1        0.3259
     11 C           2.2174   31.9363    7.2268 C.3     1  UNL1        0.0418
     12 C           1.9727   31.2003    5.8951 C.3     1  UNL1        0.0060
     13 C           1.6253   32.1711    4.7670 C.3     1  UNL1        0.0004
     14 C           2.6823   33.2584    4.6049 C.3     1  UNL1        0.0000
     15 C           2.9452   33.9868    5.9189 C.3     1  UNL1        0.0004
     16 C           3.3120   33.0082    7.0341 C.3     1  UNL1        0.0060
@<TRIPOS>BOND
     1     1     2    1
     2     2     3   ar
     3     2     9   ar
     4     3     4   ar
     5     4    11    1
     6     4     5   ar
     7    11    12    1
     8    11    16    1
     9    12    13    1
    10    13    14    1
    11    14    15    1
    12    15    16    1
    13     5     6    1
    14     5     7   ar
    15     6    10    1
    16     7     8    2
    17     7     9   ar
#	Name:			CHEMBL14192
#	Creating user name:	trannguyen
#	Creation time:		Tue Feb  8 18:26:14 2022


#	Modifying user name:	trannguyen
#	Modification time:	Tue Feb  8 18:26:14 2022

@<TRIPOS>MOLECULE
CHEMBL14192
 12 13 0 0 0
SMALL
GASTEIGER

@<TRIPOS>ATOM
      1 C           3.7831   27.6483   10.1323 C.ar    1  UNL1       -0.0000
      2 C           2.4068   27.8642   10.1508 C.ar    1  UNL1       -0.0003
      3 C           1.8995   29.1586   10.0240 C.ar    1  UNL1       -0.0024
      4 C           2.7665   30.2518    9.8766 C.ar    1  UNL1        0.0004
      5 C           4.1498   30.0194    9.8469 C.ar    1  UNL1       -0.0024
      6 C           4.6542   28.7247    9.9787 C.ar    1  UNL1       -0.0003
      7 C           2.2229   31.6498    9.7329 C.3     1  UNL1        0.1343
      8 N           2.5943   32.2416    8.4611 N.ar    1  UNL1       -0.3036
      9 C           2.2899   31.7636    7.2158 C.ar    1  UNL1        0.0983
     10 C           2.9163   32.6228    6.3432 C.ar    1  UNL1        0.1193
     11 N           3.5983   33.5973    7.0249 N.ar    1  UNL1       -0.2223
     12 C           3.3856   33.3431    8.2961 C.ar    1  UNL1        0.1789
@<TRIPOS>BOND
     1     1     2   ar
     2     1     6   ar
     3     2     3   ar
     4     3     4   ar
     5     4     7    1
     6     4     5   ar
     7     7     8    1
     8     8     9   ar
     9     8    12   ar
    10     9    10   ar
    11    10    11   ar
    12    11    12   ar
    13     5     6   ar
#	Name:			CHEMBL1419
#	Creating user name:	trannguyen
#	Creation time:		Tue Feb  8 18:26:14 2022


#	Modifying user name:	trannguyen
#	Modification time:	Tue Feb  8 18:26:14 2022

@<TRIPOS>MOLECULE
CHEMBL1419
 19 20 0 0 0
SMALL
GASTEIGER

@<TRIPOS>ATOM
      1 C           4.3215   32.5934    8.1844 C.3     1  UNL1        0.0323
      2 C           5.3309   33.4190    9.0998 C.3     1  UNL1        0.0054
      3 C           4.1146   34.1408    9.7142 C.3     1  UNL1        0.0007
      4 C           3.3858   33.8724    8.3937 C.3     1  UNL1        0.0054
      5 C           3.7604   31.1974    8.8884 C.ar    1  UNL1       -0.0215
      6 C           2.4041   30.7975    8.8184 C.ar    1  UNL1       -0.0034
      7 C           1.9193   29.7044    9.5521 C.ar    1  UNL1        0.0111
      8 C           2.7751   28.9287   10.3102 C.ar    1  UNL1        0.0577
      9 CL          2.1694   27.6358   11.2683 Cl      1  UNL1       -0.0822
     10 C           4.1405   29.2047   10.3101 C.ar    1  UNL1        0.0111
     11 C           4.6044   30.3199    9.6047 C.ar    1  UNL1       -0.0034
     12 C           4.8141   32.4151    6.6689 C.3     1  UNL1        0.0612
     13 N           6.1351   32.9995    6.3481 N.3     1  UNL1       -0.2713
     14 C           7.3078   32.1978    6.6534 C.3     1  UNL1        0.0896
     15 C           6.2516   33.6494    5.0533 C.3     1  UNL1        0.0896
     16 C           3.7443   32.8559    5.6078 C.3     1  UNL1        0.0163
     17 C           1.3759   32.5573    4.7457 C.3     1  UNL1        0.0000
     18 C           2.6686   31.8170    5.1414 C.3     1  UNL1        0.0013
     19 C           3.0581   30.9202    3.9612 C.3     1  UNL1        0.0000
@<TRIPOS>BOND
     1    17    18    1
     2    18    19    1
     3    18    16    1
     4    16    12    1
     5    12    13    1
     6    12     1    1
     7    13    14    1
     8    13    15    1
     9     1     5    1
    10     1     2    1
    11     1     4    1
    12     5     6   ar
    13     5    11   ar
    14     6     7   ar
    15     7     8   ar
    16     8     9    1
    17     8    10   ar
    18    10    11   ar
    19     2     3    1
    20     3     4    1
#	Name:			CHEMBL141
#	Creating user name:	trannguyen
#	Creation time:		Tue Feb  8 18:26:14 2022


#	Modifying user name:	trannguyen
#	Modification time:	Tue Feb  8 18:26:14 2022

@<TRIPOS>MOLECULE
CHEMBL141
 18 19 0 0 0
SMALL
GASTEIGER

@<TRIPOS>ATOM
      1 N           2.2724   27.4451   11.4083 N.pl3   1  UNL1       -0.3425
      2 C           2.7378   28.5971   10.8366 C.ar    1  UNL1        0.1316
      3 C           4.0365   28.5726   10.1437 C.ar    1  UNL1        0.0528
      4 C           4.4325   29.7240    9.6085 C.ar    1  UNL1        0.0848
      5 N           3.6451   30.8549    9.6506 N.ar    1  UNL1       -0.2550
      6 C           2.4573   30.8571   10.4037 C.ar    1  UNL1        0.3530
      7 O           1.8287   31.8958   10.5739 O.2     1  UNL1       -0.2443
      8 N           2.0179   29.6674   10.9481 N.ar    1  UNL1       -0.1777
      9 H           2.5096   26.5681   10.9616 H       1  UNL1        0.1437
     10 H           1.3045   27.5049   11.7078 H       1  UNL1        0.1437
     11 C           4.0959   32.1336    9.0827 C.3     1  UNL1        0.2200
     12 C           4.8047   32.0486    7.7203 C.3     1  UNL1        0.1138
     13 S           6.5411   31.8458    8.1324 S.3     1  UNL1       -0.1047
     14 C           6.3245   32.7926    9.6531 C.3     1  UNL1        0.1939
     15 O           4.9392   32.8436   10.0213 O.3     1  UNL1       -0.3234
     16 C           7.1847   32.2052   10.7870 C.3     1  UNL1        0.1781
     17 O           6.9685   32.8559   12.0393 O.3     1  UNL1       -0.3787
     18 H           6.9570   33.8164   11.8680 H       1  UNL1        0.2106
@<TRIPOS>BOND
     1     1     2    1
     2     1     9    1
     3     1    10    1
     4     2     3   ar
     5     2     8   ar
     6     3     4   ar
     7     4     5   ar
     8     5     6   ar
     9    11    12    1
    10    11    15    1
    11    11     5    1
    12    12    13    1
    13    13    14    1
    14    14    16    1
    15    14    15    1
    16    16    17    1
    17    17    18    1
    18     6     7    2
    19     6     8   ar
#	Name:			CHEMBL1425
#	Creating user name:	trannguyen
#	Creation time:		Tue Feb  8 18:26:14 2022


#	Modifying user name:	trannguyen
#	Modification time:	Tue Feb  8 18:26:14 2022

@<TRIPOS>MOLECULE
CHEMBL1425
 12 13 0 0 0
SMALL
GASTEIGER

@<TRIPOS>ATOM
      1 S           1.1992   32.1697    9.2748 S.3     1  UNL1       -0.1212
      2 C           2.4612   31.0129    9.6660 C.ar    1  UNL1        0.1234
      3 N           3.7301   31.2615    9.2926 N.ar    1  UNL1       -0.2163
      4 C           4.6691   30.3467    9.6129 C.ar    1  UNL1        0.2008
      5 N           4.5069   29.1910   10.2706 N.ar    1  UNL1       -0.2033
      6 C           3.2304   28.9706   10.6300 C.ar    1  UNL1        0.1832
      7 N           2.7689   27.8763   11.3104 N.ar    1  UNL1       -0.2050
      8 C           1.4761   28.0769   11.4442 C.ar    1  UNL1        0.1767
      9 N           1.0858   29.2588   10.8763 N.ar    1  UNL1       -0.3321
     10 H           0.1463   29.6313   10.8506 H       1  UNL1        0.1676
     11 C           2.2005   29.8473   10.3476 C.ar    1  UNL1        0.1176
     12 H           2.0257   33.0237    8.6547 H       1  UNL1        0.1086
@<TRIPOS>BOND
     1     1     2    1
     2     1    12    1
     3     2     3   ar
     4     2    11   ar
     5     3     4   ar
     6     4     5   ar
     7     5     6   ar
     8     6     7   ar
     9     6    11   ar
    10     7     8   ar
    11     8     9   ar
    12     9    10    1
    13     9    11   ar
#	Name:			CHEMBL1428
#	Creating user name:	trannguyen
#	Creation time:		Tue Feb  8 18:26:14 2022


#	Modifying user name:	trannguyen
#	Modification time:	Tue Feb  8 18:26:14 2022

@<TRIPOS>MOLECULE
CHEMBL1428
 31 32 0 0 0
SMALL
GASTEIGER

@<TRIPOS>ATOM
      1 C           4.2994   30.4257    9.4909 C.2     1  UNL1        0.0707
      2 C           3.9061   29.1813    9.8534 C.2     1  UNL1        0.0283
      3 C           4.8013   28.0816   10.3736 C.3     1  UNL1        0.0470
      4 N           2.5646   28.8391    9.7660 N.pl3   1  UNL1       -0.3192
      5 C           1.5424   29.7626    9.6314 C.2     1  UNL1        0.0283
      6 C           0.1532   29.2196    9.8611 C.3     1  UNL1        0.0470
      7 C           1.8311   31.0458    9.3030 C.2     1  UNL1        0.0707
      8 C           3.2729   31.4508    8.9608 C.3     1  UNL1        0.0813
      9 H           2.2997   27.9313   10.1440 H       1  UNL1        0.1516
     10 C           3.4341   31.6698    7.4414 C.ar    1  UNL1       -0.0123
     11 C           2.5177   31.0960    6.5373 C.ar    1  UNL1       -0.0035
     12 C           2.6114   31.3179    5.1594 C.ar    1  UNL1        0.0013
     13 C           3.6442   32.0952    4.6466 C.ar    1  UNL1        0.0199
     14 C           4.5787   32.6354    5.5330 C.ar    1  UNL1        0.0915
     15 C           4.4877   32.4441    6.9194 C.ar    1  UNL1        0.0163
     16 N           5.6810   33.4060    4.9857 N.pl3   1  UNL1       -0.1853
     17 O           6.8199   32.9376    5.1238 O.2     1  UNL1       -0.1725
     18 O           5.4000   34.4602    4.3999 O.co2   1  UNL1       -0.7770
     19 C           5.6906   30.9431    9.5819 C.2     1  UNL1        0.3388
     20 O           6.5758   30.5875    8.8286 O.2     1  UNL1       -0.2452
     21 O           5.8360   31.8796   10.5460 O.3     1  UNL1       -0.4429
     22 C           6.7440   32.9467   10.2420 C.3     1  UNL1        0.2407
     23 C           5.9969   34.2119    9.8289 C.3     1  UNL1        0.1895
     24 C           7.7477   34.1296    8.2443 C.3     1  UNL1        0.1743
     25 O           6.8228   34.9564    8.9361 O.3     1  UNL1       -0.3471
     26 C           0.7746   32.0853    9.3795 C.2     1  UNL1        0.3386
     27 O          -0.1409   32.1794    8.5622 O.2     1  UNL1       -0.2452
     28 O           0.9518   32.8970   10.4437 O.3     1  UNL1       -0.4494
     29 C           1.1849   34.3097   10.2240 C.3     1  UNL1        0.1694
     30 C          -0.0008   35.1639   10.6714 C.3     1  UNL1        0.0473
     31 C           2.5083   34.7919   10.8107 C.3     1  UNL1        0.0473
@<TRIPOS>UNITY_ATOM_ATTR
18 1
charge -1
@<TRIPOS>BOND
     1    24    25    1
     2    25    23    1
     3    23    22    1
     4    22    21    1
     5    21    19    1
     6    19    20    2
     7    19     1    1
     8     1     2    2
     9     1     8    1
    10     2     3    1
    11     2     4    1
    12     4     5    1
    13     4     9    1
    14     5     6    1
    15     5     7    2
    16     7    26    1
    17     7     8    1
    18    26    27    2
    19    26    28    1
    20    28    29    1
    21    29    30    1
    22    29    31    1
    23     8    10    1
    24    10    11   ar
    25    10    15   ar
    26    11    12   ar
    27    12    13   ar
    28    13    14   ar
    29    14    16    1
    30    14    15   ar
    31    16    17    2
    32    16    18    1
#	Name:			CHEMBL1430
#	Creating user name:	trannguyen
#	Creation time:		Tue Feb  8 18:26:14 2022


#	Modifying user name:	trannguyen
#	Modification time:	Tue Feb  8 18:26:14 2022

@<TRIPOS>MOLECULE
CHEMBL1430
 13 12 0 0 0
SMALL
GASTEIGER

@<TRIPOS>ATOM
      1 CA          2.8789   28.9093   10.0855 C.3     1  UNL1        0.1598
      2 N           4.1138   29.4886   10.7301 N.3     1  UNL1       -0.3128
      3 H1          4.3256   30.3544   10.2158 H       1  UNL1        0.1193
      4 H2          4.8998   28.8709   10.4965 H       1  UNL1        0.1193
      5 C           1.7727   31.1449   10.7436 C.3     1  UNL1        0.0125
      6 C           1.8051   29.9849    9.7366 C.3     1  UNL1        0.0590
      7 C           0.4021   29.3750    9.5996 C.3     1  UNL1        0.0125
      8 S           2.2352   30.7096    8.0793 S.3     1  UNL1       -0.1678
      9 H           1.1833   31.5391    7.9905 H       1  UNL1        0.1023
     10 C           2.3265   27.8351   11.0429 C.2     1  UNL1        0.3288
     11 O           2.0381   28.0092   12.2144 O.2     1  UNL1       -0.2488
     12 OXT         2.2028   26.6346   10.4158 O.3     1  UNL1       -0.4792
     13 HXT         2.4892   26.7898    9.4793 H       1  UNL1        0.2951
@<TRIPOS>BOND
     1     5     6    1
     2     6     7    1
     3     6     8    1
     4     6     1    1
     5     8     9    1
     6     1     2    1
     7     1    10    1
     8     2     3    1
     9     2     4    1
    10    10    11    2
    11    10    12    1
    12    12    13    1
#	Name:			CHEMBL1431
#	Creating user name:	trannguyen
#	Creation time:		Tue Feb  8 18:26:14 2022


#	Modifying user name:	trannguyen
#	Modification time:	Tue Feb  8 18:26:14 2022

@<TRIPOS>MOLECULE
CHEMBL1431
 14 13 0 0 0
SMALL
GASTEIGER

@<TRIPOS>ATOM
      1 N           2.5021   28.9087   10.2976 N.pl3   1  UNL1       -0.1861
      2 H           3.2210   28.4230    9.7952 H       1  UNL1        0.2707
      3 C           1.6946   28.0669   10.9961 C.cat   1  UNL1        0.3855
      4 N           2.0467   27.0558   11.7054 N.pl3   1  UNL1       -0.1293
      5 N           0.3730   28.3546   10.9065 N.pl3   1  UNL1       -0.2888
      6 H           3.0819   27.0110   11.6106 H       1  UNL1        0.3062
      7 H           0.0357   28.2988    9.9532 H       1  UNL1        0.2547
      8 H          -0.1168   27.6453   11.4508 H       1  UNL1        0.2547
      9 C           2.4900   30.2695   10.1447 C.cat   1  UNL1        0.3916
     10 N           1.8983   31.0051   11.0339 N.pl3   1  UNL1       -0.1290
     11 H           1.9751   31.9901   10.7937 H       1  UNL1        0.3062
     12 C           2.4214   31.2744    7.8650 C.3     1  UNL1        0.2206
     13 N           3.1472   30.7735    9.0337 N.pl3   1  UNL1       -0.2275
     14 C           4.5101   31.2960    9.1325 C.3     1  UNL1        0.2206
@<TRIPOS>BOND
     1    12    13    1
     2    13    14    1
     3    13     9    1
     4     9    10    2
     5     9     1    1
     6    10    11    1
     7     1     3    1
     8     1     2    1
     9     3     4    2
    10     3     5    1
    11     4     6    1
    12     5     7    1
    13     5     8    1
#	Name:			CHEMBL1433
#	Creating user name:	trannguyen
#	Creation time:		Tue Feb  8 18:26:14 2022


#	Modifying user name:	trannguyen
#	Modification time:	Tue Feb  8 18:26:14 2022

@<TRIPOS>MOLECULE
CHEMBL1433
 39 42 0 0 0
SMALL
GASTEIGER

@<TRIPOS>ATOM
      1 C           5.3456   29.5012   10.5978 C.3     1  UNL1        0.0051
      2 C           4.8268   30.1834    9.3251 C.3     1  UNL1        0.0291
      3 C           3.3044   30.3488    9.2818 C.ar    1  UNL1       -0.0161
      4 C           2.4407   29.7362   10.2053 C.ar    1  UNL1       -0.0040
      5 C           1.0582   29.9195   10.1288 C.ar    1  UNL1        0.0028
      6 C           0.5096   30.7203    9.1321 C.ar    1  UNL1        0.0367
      7 C           1.3463   31.3316    8.2006 C.ar    1  UNL1        0.1364
      8 O           0.7921   32.1507    7.2582 O.3     1  UNL1       -0.5054
      9 C           2.7362   31.1423    8.2596 C.ar    1  UNL1        0.0684
     10 C           3.6328   31.7520    7.2413 C.2     1  UNL1        0.1970
     11 O           3.2641   31.9931    6.0946 O.2     1  UNL1       -0.2867
     12 C           5.0529   32.0155    7.6456 C.2     1  UNL1        0.0513
     13 C           5.9162   32.5213    6.7380 C.2     1  UNL1        0.1414
     14 O           5.5876   32.7075    5.4041 O.2     1  UNL1       -0.5072
     15 C           7.3686   32.7729    7.0623 C.3     1  UNL1        0.1966
     16 O           8.0559   31.6213    6.5450 O.3     1  UNL1       -0.3729
     17 C           7.9999   34.0426    6.3919 C.2     1  UNL1        0.2109
     18 O           7.4335   34.8567    5.6681 O.2     1  UNL1       -0.2882
     19 C           9.4547   34.2494    6.7040 C.2     1  UNL1        0.1212
     20 C           9.5167   34.3736    8.0467 C.2     1  UNL1        0.1329
     21 O           9.0131   35.5561    8.6089 O.2     1  UNL1       -0.5082
     22 C           9.1352   33.1120    8.8661 C.3     1  UNL1        0.1204
     23 C           7.6075   32.8772    8.5983 C.3     1  UNL1        0.0878
     24 C           6.9968   31.6400    9.2833 C.3     1  UNL1        0.1198
     25 O           7.2037   31.7027   10.6968 O.3     1  UNL1       -0.3839
     26 C           5.4593   31.5854    9.0457 C.3     1  UNL1        0.0593
     27 H          -0.1753   32.0816    7.2863 H       1  UNL1        0.2922
     28 H           4.6150   32.5675    5.3015 H       1  UNL1        0.2918
     29 H           7.6985   31.4811    5.6445 H       1  UNL1        0.2113
     30 H           9.1361   36.2858    7.9712 H       1  UNL1        0.2918
     31 H           8.1551   31.9072   10.8350 H       1  UNL1        0.2104
     32 C          10.4214   33.3398    6.0273 C.2     1  UNL1        0.2483
     33 N          10.0818   32.9889    4.7540 N.am    1  UNL1       -0.3252
     34 O          11.4802   32.9893    6.5266 O.2     1  UNL1       -0.2702
     35 H          10.7424   32.4254    4.2339 H       1  UNL1        0.1453
     36 H           9.2805   33.3652    4.2610 H       1  UNL1        0.1453
     37 N           9.5307   33.0985   10.2963 N.3     1  UNL1       -0.2652
     38 C          10.9008   32.5935   10.4533 C.3     1  UNL1        0.0900
     39 C           9.3947   34.3728   11.0096 C.3     1  UNL1        0.0900
@<TRIPOS>BOND
     1     2     3    1
     2     2    26    1
     3     2     1    1
     4     3     4   ar
     5     3     9   ar
     6     4     5   ar
     7     5     6   ar
     8     6     7   ar
     9     7     9   ar
    10     7     8    1
    11     8    27    1
    12     9    10    1
    13    10    12    1
    14    10    11    2
    15    12    13    2
    16    12    26    1
    17    13    15    1
    18    13    14    1
    19    14    28    1
    20    15    17    1
    21    15    23    1
    22    15    16    1
    23    16    29    1
    24    17    19    1
    25    17    18    2
    26    19    20    2
    27    19    32    1
    28    32    33   am
    29    32    34    2
    30    33    35    1
    31    33    36    1
    32    20    22    1
    33    20    21    1
    34    21    30    1
    35    22    23    1
    36    22    37    1
    37    37    38    1
    38    37    39    1
    39    23    24    1
    40    24    26    1
    41    24    25    1
    42    25    31    1
#	Name:			CHEMBL1440
#	Creating user name:	trannguyen
#	Creation time:		Tue Feb  8 18:26:14 2022


#	Modifying user name:	trannguyen
#	Modification time:	Tue Feb  8 18:26:14 2022

@<TRIPOS>MOLECULE
CHEMBL1440
 39 42 0 0 0
SMALL
GASTEIGER

@<TRIPOS>ATOM
      1 C           9.9245   32.8514    7.8663 C.3     1  UNL1        0.1180
      2 C           9.9965   32.4409    9.3351 C.2     1  UNL1        0.1328
      3 O           9.8320   31.0708    9.5293 O.2     1  UNL1       -0.5082
      4 C           9.5383   33.3048   10.2612 C.2     1  UNL1        0.1212
      5 C           8.0522   33.2703   10.0778 C.2     1  UNL1        0.2108
      6 O           7.2967   33.0611   11.0270 O.2     1  UNL1       -0.2882
      7 C           7.5633   33.6434    8.6363 C.3     1  UNL1        0.1943
      8 O           7.7668   35.0477    8.4279 O.3     1  UNL1       -0.3729
      9 C           6.0606   33.4130    8.5575 C.2     1  UNL1        0.1414
     10 O           5.3029   34.1964    9.4127 O.2     1  UNL1       -0.5072
     11 C           5.4851   32.5907    7.6669 C.2     1  UNL1        0.0512
     12 C           4.0095   32.4601    7.5186 C.2     1  UNL1        0.1970
     13 O           3.2332   32.4574    8.4670 O.2     1  UNL1       -0.2867
     14 C           3.5108   32.2699    6.1247 C.ar    1  UNL1        0.0706
     15 C           2.1287   32.1860    5.8928 C.ar    1  UNL1        0.1364
     16 O           1.1943   32.2340    6.8938 O.3     1  UNL1       -0.5054
     17 C           1.6319   32.0484    4.5994 C.ar    1  UNL1        0.0367
     18 C           2.5093   31.9925    3.5202 C.ar    1  UNL1        0.0029
     19 C           3.8859   32.0590    3.7359 C.ar    1  UNL1       -0.0017
     20 C           4.4116   32.1877    5.0366 C.ar    1  UNL1        0.0080
     21 C           5.9281   32.2652    5.2476 C.3     1  UNL1        0.1111
     22 C           6.3791   33.6977    4.9119 C.3     1  UNL1        0.0342
     23 O           6.5499   31.3713    4.3159 O.3     1  UNL1       -0.3824
     24 C           6.2524   31.7590    6.6868 C.3     1  UNL1        0.0569
     25 C           7.7310   31.6076    7.1029 C.3     1  UNL1        0.0122
     26 C           8.3932   32.9389    7.5040 C.3     1  UNL1        0.0611
     27 H          10.1026   30.6409    8.6881 H       1  UNL1        0.2918
     28 H           7.1216   35.5081    9.0035 H       1  UNL1        0.2113
     29 H           5.5277   33.9094   10.3274 H       1  UNL1        0.2918
     30 H           1.6707   32.3257    7.7507 H       1  UNL1        0.2922
     31 H           7.4754   31.6415    4.1995 H       1  UNL1        0.2107
     32 C          10.0750   34.7042   10.3373 C.2     1  UNL1        0.2483
     33 N          11.4283   34.8495   10.2467 N.am    1  UNL1       -0.3252
     34 O           9.3564   35.6742   10.5041 O.2     1  UNL1       -0.2702
     35 H          11.7917   35.7925   10.3118 H       1  UNL1        0.1453
     36 H          12.0840   34.0833   10.1842 H       1  UNL1        0.1453
     37 C          10.7678   32.3528    5.6186 C.3     1  UNL1        0.0900
     38 N          10.7399   31.9242    7.0278 N.3     1  UNL1       -0.2653
     39 C          12.1457   31.8792    7.4864 C.3     1  UNL1        0.0900
@<TRIPOS>BOND
     1    37    38    1
     2    38    39    1
     3     1     2    1
     4     1    26    1
     5     1    38    1
     6     2     4    2
     7     2     3    1
     8     3    27    1
     9     4     5    1
    10     4    32    1
    11    32    33   am
    12    32    34    2
    13    33    35    1
    14    33    36    1
    15     5     7    1
    16     5     6    2
    17     7     9    1
    18     7    26    1
    19     7     8    1
    20     8    28    1
    21     9    11    2
    22     9    10    1
    23    10    29    1
    24    11    12    1
    25    11    24    1
    26    12    14    1
    27    12    13    2
    28    14    15   ar
    29    14    20   ar
    30    15    17   ar
    31    15    16    1
    32    16    30    1
    33    17    18   ar
    34    18    19   ar
    35    19    20   ar
    36    20    21    1
    37    21    24    1
    38    21    22    1
    39    21    23    1
    40    23    31    1
    41    24    25    1
    42    25    26    1
#	Name:			CHEMBL1444
#	Creating user name:	trannguyen
#	Creation time:		Tue Feb  8 18:26:14 2022


#	Modifying user name:	trannguyen
#	Modification time:	Tue Feb  8 18:26:14 2022

@<TRIPOS>MOLECULE
CHEMBL1444
 22 24 0 0 0
SMALL
GASTEIGER

@<TRIPOS>ATOM
      1 C           4.6526   32.5875    8.4314 C.3     1  UNL1        0.1513
      2 C           6.2258   31.9146    4.4239 C.ar    1  UNL1        0.0684
      3 C           7.0893   31.9757    5.5209 C.ar    1  UNL1        0.0100
      4 C           6.5843   32.1982    6.8092 C.ar    1  UNL1       -0.0014
      5 C           5.2036   32.3676    7.0215 C.ar    1  UNL1        0.0041
      6 C           4.3524   32.3175    5.9043 C.ar    1  UNL1       -0.0014
      7 C           4.8546   32.0911    4.6202 C.ar    1  UNL1        0.0100
      8 N           7.1486   31.4605    2.0434 N.1     1  UNL1       -0.1908
      9 C           6.7383   31.6633    3.1074 C.1     1  UNL1        0.1004
     10 C           4.1093   31.3213    9.1045 C.ar    1  UNL1        0.0041
     11 C           2.7400   31.2331    9.4190 C.ar    1  UNL1       -0.0014
     12 C           2.2188   30.0992   10.0563 C.ar    1  UNL1        0.0100
     13 C           3.0543   29.0290   10.3841 C.ar    1  UNL1        0.0684
     14 C           4.4058   29.0851   10.0457 C.ar    1  UNL1        0.0100
     15 C           4.9227   30.2139    9.4031 C.ar    1  UNL1       -0.0014
     16 C           2.5342   27.8804   11.0695 C.1     1  UNL1        0.1004
     17 N           2.1234   26.9524   11.6267 N.1     1  UNL1       -0.1908
     18 N           5.5917   33.3429    9.2860 N.ar    1  UNL1       -0.2236
     19 C           6.4249   32.8250   10.2366 C.ar    1  UNL1        0.1978
     20 N           7.0960   33.7924   10.8177 N.ar    1  UNL1       -0.2007
     21 C           6.6417   34.9089   10.1804 C.ar    1  UNL1        0.2210
     22 N           5.7253   34.6917    9.2348 N.ar    1  UNL1       -0.1446
@<TRIPOS>BOND
     1     8     9    3
     2     9     2    1
     3     2     3   ar
     4     2     7   ar
     5     3     4   ar
     6     4     5   ar
     7     5     1    1
     8     5     6   ar
     9     1    10    1
    10     1    18    1
    11    10    11   ar
    12    10    15   ar
    13    11    12   ar
    14    12    13   ar
    15    13    16    1
    16    13    14   ar
    17    16    17    3
    18    14    15   ar
    19    18    19   ar
    20    18    22   ar
    21    19    20   ar
    22    20    21   ar
    23    21    22   ar
    24     6     7   ar
#	Name:			CHEMBL1447
#	Creating user name:	trannguyen
#	Creation time:		Tue Feb  8 18:26:14 2022


#	Modifying user name:	trannguyen
#	Modification time:	Tue Feb  8 18:26:14 2022

@<TRIPOS>MOLECULE
CHEMBL1447
 32 33 0 0 0
SMALL
GASTEIGER

@<TRIPOS>ATOM
      1 C           7.4098   32.8078    9.6840 C.3     1  UNL1        0.1282
      2 C           8.3008   33.5350    8.5861 C.3     1  UNL1        0.1656
      3 O           9.7291   33.4236    8.8414 O.3     1  UNL1       -0.3410
      4 C          10.3499   32.2026    8.4034 C.3     1  UNL1        0.1918
      5 C          10.0688   31.8888    6.9134 C.3     1  UNL1        0.1772
      6 O          10.7751   32.7808    6.0343 O.3     1  UNL1       -0.3787
      7 C           8.5782   31.9733    6.6082 C.3     1  UNL1        0.1697
      8 O           7.9020   30.8852    7.2419 O.3     1  UNL1       -0.3794
      9 C           8.0314   33.3214    7.0745 C.3     1  UNL1        0.1685
     10 O           6.6615   33.4663    6.6904 O.3     1  UNL1       -0.3794
     11 H          11.6873   32.8437    6.3851 H       1  UNL1        0.2106
     12 H           6.9663   31.1469    7.3904 H       1  UNL1        0.2105
     13 H           6.6244   33.4015    5.7159 H       1  UNL1        0.2105
     14 S          12.1728   32.2821    8.6802 S.3     1  UNL1       -0.1086
     15 C          12.5065   30.5149    8.9523 C.3     1  UNL1        0.0716
     16 C           5.3868   31.2671    9.6711 C.2     1  UNL1        0.2370
     17 O           5.8511   30.5043   10.4922 O.2     1  UNL1       -0.2737
     18 N           6.0730   32.3683    9.1777 N.am    1  UNL1       -0.3004
     19 H           5.4994   33.0160    8.6571 H       1  UNL1        0.1496
     20 C           2.1832   32.0345    7.8019 C.3     1  UNL1        0.0178
     21 C           3.6876   32.1323    8.0202 C.3     1  UNL1        0.0267
     22 C           4.0026   31.0020    8.9911 C.3     1  UNL1        0.1348
     23 N           2.8366   31.0318    9.9210 N.3     1  UNL1       -0.2653
     24 C           2.4780   29.6972   10.4029 C.3     1  UNL1        0.0900
     25 C           1.6956   31.6305    9.1951 C.3     1  UNL1        0.0725
     26 C           1.7639   31.0483    6.6873 C.3     1  UNL1        0.0014
     27 C           1.3934   32.6353    4.6941 C.3     1  UNL1        0.0000
     28 C           2.1912   31.4732    5.2718 C.3     1  UNL1        0.0000
     29 C           7.2670   33.5648   11.0513 C.3     1  UNL1        0.1309
     30 C           6.1651   34.6305   11.0908 C.3     1  UNL1        0.0336
     31 O           7.0880   32.6512   12.1413 O.3     1  UNL1       -0.3827
     32 H           6.1194   32.4922   12.1909 H       1  UNL1        0.2104
@<TRIPOS>BOND
     1    27    28    1
     2    28    26    1
     3    20    21    1
     4    20    25    1
     5    20    26    1
     6    21    22    1
     7    22    23    1
     8    22    16    1
     9    16    17    2
    10    16    18   am
    11    18    19    1
    12     1    29    1
    13     1     2    1
    14     1    18    1
    15    29    30    1
    16    29    31    1
    17    31    32    1
    18     2     3    1
    19     2     9    1
    20     3     4    1
    21     4    14    1
    22     4     5    1
    23    14    15    1
    24     5     6    1
    25     5     7    1
    26     6    11    1
    27     7     9    1
    28     7     8    1
    29     8    12    1
    30     9    10    1
    31    10    13    1
    32    23    24    1
    33    23    25    1
#	Name:			CHEMBL1451
#	Creating user name:	trannguyen
#	Creation time:		Tue Feb  8 18:26:14 2022


#	Modifying user name:	trannguyen
#	Modification time:	Tue Feb  8 18:26:14 2022

@<TRIPOS>MOLECULE
CHEMBL1451
 32 35 0 0 0
SMALL
GASTEIGER

@<TRIPOS>ATOM
      1 C           3.0453   31.0317    7.5783 C.3     1  UNL1        0.0029
      2 C           3.0947   31.4033    9.0868 C.3     1  UNL1        0.0339
      3 C           3.1144   32.9303    9.2747 C.3     1  UNL1        0.0347
      4 C           4.4068   33.5836    8.7421 C.3     1  UNL1        0.1409
      5 O           4.3579   33.6268    7.3199 O.3     1  UNL1       -0.3817
      6 C           5.7122   32.9141    9.2936 C.3     1  UNL1        0.1644
      7 F           5.6895   33.2040   10.6532 F       1  UNL1       -0.2369
      8 C           5.6805   31.3589    9.2070 C.3     1  UNL1        0.0335
      9 C           6.8571   30.7811   10.0078 C.3     1  UNL1        0.0071
     10 C           8.1924   31.2893    9.4920 C.3     1  UNL1        0.0226
     11 C           8.2919   32.8059    9.4090 C.2     1  UNL1       -0.0354
     12 C           9.5289   33.2734    9.1138 C.2     1  UNL1        0.0339
     13 C           9.7705   33.2503    7.6197 C.2     1  UNL1        0.1948
     14 O          10.9059   33.2793    7.1594 O.2     1  UNL1       -0.2866
     15 C           8.5716   33.2701    6.7286 C.2     1  UNL1        0.0378
     16 C           7.3329   33.4063    7.2402 C.2     1  UNL1       -0.0171
     17 C           7.0759   33.5195    8.7479 C.3     1  UNL1        0.0638
     18 C           7.0904   35.0361    9.0911 C.3     1  UNL1        0.0112
     19 C           4.3546   30.8346    9.7839 C.3     1  UNL1        0.0079
     20 C           4.0951   29.3235    9.8040 C.3     1  UNL1        0.0323
     21 C           2.5605   29.1999    9.9696 C.3     1  UNL1        0.1416
     22 O           2.2403   28.6314   11.2429 O.3     1  UNL1       -0.3816
     23 C           1.9995   30.6516    9.9049 C.3     1  UNL1        0.1657
     24 O           1.9584   31.1796   11.2459 O.3     1  UNL1       -0.3773
     25 H           3.5305   34.0762    7.0665 H       1  UNL1        0.2104
     26 H           2.6595   27.7506   11.2806 H       1  UNL1        0.2105
     27 H           1.9432   30.3941   11.8362 H       1  UNL1        0.2109
     28 C           0.5630   30.6906    9.3569 C.2     1  UNL1        0.2061
     29 O          -0.0168   31.7319    9.0344 O.2     1  UNL1       -0.2909
     30 C          -0.1715   29.3557    9.2439 C.3     1  UNL1        0.2045
     31 O          -0.6681   28.9247   10.5056 O.3     1  UNL1       -0.3749
     32 H          -0.0687   29.3076   11.1776 H       1  UNL1        0.2110
@<TRIPOS>BOND
     1     2     1    1
     2     2     3    1
     3     2    19    1
     4     2    23    1
     5     3     4    1
     6     4     6    1
     7     4     5    1
     8     5    25    1
     9     6     7    1
    10     6     8    1
    11     6    17    1
    12     8     9    1
    13     8    19    1
    14     9    10    1
    15    10    11    1
    16    11    12    2
    17    11    17    1
    18    12    13    1
    19    13    14    2
    20    13    15    1
    21    15    16    2
    22    16    17    1
    23    17    18    1
    24    19    20    1
    25    20    21    1
    26    21    23    1
    27    21    22    1
    28    22    26    1
    29    23    24    1
    30    23    28    1
    31    24    27    1
    32    28    29    2
    33    28    30    1
    34    30    31    1
    35    31    32    1
#	Name:			CHEMBL1454946
#	Creating user name:	trannguyen
#	Creation time:		Tue Feb  8 18:26:14 2022


#	Modifying user name:	trannguyen
#	Modification time:	Tue Feb  8 18:26:14 2022

@<TRIPOS>MOLECULE
CHEMBL1454946
 25 27 0 0 0
SMALL
GASTEIGER

@<TRIPOS>ATOM
      1 C           6.4082   32.4382    3.4120 C.ar    1  UNL1        0.2029
      2 N           6.4139   32.8755    4.6478 N.ar    1  UNL1       -0.2136
      3 C           5.2226   32.4343    5.1818 C.ar    1  UNL1        0.0998
      4 C           4.7497   32.5062    6.4996 C.ar    1  UNL1        0.0238
      5 C           3.5272   31.8986    6.8234 C.ar    1  UNL1        0.0405
      6 C           2.7228   31.3711    5.7946 C.ar    1  UNL1        0.0048
      7 C           3.1459   31.3508    4.4582 C.ar    1  UNL1        0.0187
      8 C           4.4244   31.8454    4.2109 C.ar    1  UNL1        0.0765
      9 N           5.1895   31.9013    3.0793 N.ar    1  UNL1       -0.3252
     10 H           4.9305   31.5883    2.1564 H       1  UNL1        0.1686
     11 C           7.7500   31.3944    1.7885 C.2     1  UNL1        0.4076
     12 O           7.1071   30.3371    1.7769 O.2     1  UNL1       -0.2260
     13 N           7.4403   32.5092    2.5148 N.am    1  UNL1       -0.2212
     14 H           8.2146   33.1232    2.7273 H       1  UNL1        0.1610
     15 C           8.7183   32.3528   -0.1049 C.3     1  UNL1        0.2574
     16 O           8.8937   31.5877    1.0898 O.3     1  UNL1       -0.4303
     17 C           3.0067   31.8268    8.2224 C.2     1  UNL1        0.1956
     18 O           2.6584   32.8846    8.7496 O.2     1  UNL1       -0.2866
     19 C           2.8657   30.5580    9.0160 C.ar    1  UNL1        0.0391
     20 C           3.9385   29.8657    9.5960 C.ar    1  UNL1        0.0055
     21 C           3.7206   28.7426   10.4003 C.ar    1  UNL1        0.0297
     22 C           2.4359   28.2449   10.5511 C.ar    1  UNL1        0.1401
     23 F           2.2367   27.1505   11.2960 F       1  UNL1       -0.2042
     24 C           1.3626   28.8562    9.9189 C.ar    1  UNL1        0.0297
     25 C           1.5742   30.0174    9.1658 C.ar    1  UNL1        0.0055
@<TRIPOS>BOND
     1    15    16    1
     2    16    11    1
     3    11    12    2
     4    11    13   am
     5    13     1    1
     6    13    14    1
     7     1     2   ar
     8     1     9   ar
     9     2     3   ar
    10     3     4   ar
    11     3     8   ar
    12     4     5   ar
    13     5    17    1
    14     5     6   ar
    15    17    18    2
    16    17    19    1
    17    19    20   ar
    18    19    25   ar
    19    20    21   ar
    20    21    22   ar
    21    22    23    1
    22    22    24   ar
    23    24    25   ar
    24     6     7   ar
    25     7     8   ar
    26     8     9   ar
    27     9    10    1
#	Name:			CHEMBL1454
#	Creating user name:	trannguyen
#	Creation time:		Tue Feb  8 18:26:14 2022


#	Modifying user name:	trannguyen
#	Modification time:	Tue Feb  8 18:26:14 2022

@<TRIPOS>MOLECULE
CHEMBL1454
 14 16 0 0 0
SMALL
GASTEIGER

@<TRIPOS>ATOM
      1 C           2.1426   31.5721    8.2253 C.3     1  UNL1        0.1470
      2 C           3.4094   32.3927    7.8349 C.3     1  UNL1        0.1214
      3 N           3.0063   32.8994    6.5415 N.pl3   1  UNL1       -0.2854
      4 C           3.9602   33.2408    5.5053 C.3     1  UNL1        0.1048
      5 C           3.1334   33.3653    4.2166 C.3     1  UNL1        0.0863
      6 S           1.7901   32.1281    4.3869 S.3     1  UNL1       -0.0786
      7 C           2.0224   32.0613    6.1015 C.2     1  UNL1        0.1548
      8 N           1.4503   31.2388    6.9242 N.2     1  UNL1       -0.2466
      9 C           3.1965   28.0966   10.5675 C.ar    1  UNL1       -0.0000
     10 C           4.1781   29.0027   10.1721 C.ar    1  UNL1       -0.0003
     11 C           3.8297   30.1287    9.4236 C.ar    1  UNL1       -0.0024
     12 C           2.4928   30.3643    9.0651 C.ar    1  UNL1        0.0015
     13 C           1.5166   29.4421    9.4688 C.ar    1  UNL1       -0.0024
     14 C           1.8664   28.3163   10.2165 C.ar    1  UNL1       -0.0003
@<TRIPOS>BOND
     1     9    10   ar
     2     9    14   ar
     3    10    11   ar
     4    11    12   ar
     5    12    13   ar
     6     1     2    1
     7     1     8    1
     8     1    12    1
     9     2     3    1
    10     3     4    1
    11     3     7    1
    12     4     5    1
    13     5     6    1
    14     6     7    1
    15     7     8    2
    16    13    14   ar
#	Name:			CHEMBL1455
#	Creating user name:	trannguyen
#	Creation time:		Tue Feb  8 18:26:14 2022


#	Modifying user name:	trannguyen
#	Modification time:	Tue Feb  8 18:26:14 2022

@<TRIPOS>MOLECULE
CHEMBL1455
 15 15 0 0 0
SMALL
GASTEIGER

@<TRIPOS>ATOM
      1 C           2.4304   30.5746    9.9372 C.ar    1  UNL1        0.2250
      2 N           2.8020   30.5783    8.6632 N.ar    1  UNL1       -0.1807
      3 C           2.8350   31.7468    8.0394 C.ar    1  UNL1        0.2250
      4 N           2.4911   32.8827    8.6302 N.ar    1  UNL1       -0.1807
      5 C           2.1167   32.8197    9.9034 C.ar    1  UNL1        0.2250
      6 N           2.0951   31.6819   10.5859 N.ar    1  UNL1       -0.1807
      7 C           3.5743   28.5262   10.3930 C.3     1  UNL1        0.1151
      8 N           2.3937   29.3481   10.6160 N.pl3   1  UNL1       -0.2746
      9 C           1.1080   28.6715   10.5477 C.3     1  UNL1        0.1151
     10 N           3.2052   31.7746    6.6863 N.pl3   1  UNL1       -0.2746
     11 C           2.1512   31.3463    5.7798 C.3     1  UNL1        0.1151
     12 C           3.9439   32.9686    6.3025 C.3     1  UNL1        0.1151
     13 N           1.7396   34.0036   10.5525 N.pl3   1  UNL1       -0.2746
     14 C           0.3045   34.2443   10.5635 C.3     1  UNL1        0.1151
     15 C           2.5861   35.1456   10.2405 C.3     1  UNL1        0.1151
@<TRIPOS>BOND
     1     7     8    1
     2     8     9    1
     3     8     1    1
     4     1     2   ar
     5     1     6   ar
     6     2     3   ar
     7     3    10    1
     8     3     4   ar
     9    10    11    1
    10    10    12    1
    11     4     5   ar
    12     5    13    1
    13     5     6   ar
    14    13    14    1
    15    13    15    1
#	Name:			CHEMBL1456
#	Creating user name:	trannguyen
#	Creation time:		Tue Feb  8 18:26:14 2022


#	Modifying user name:	trannguyen
#	Modification time:	Tue Feb  8 18:26:14 2022

@<TRIPOS>MOLECULE
CHEMBL1456
 32 34 0 0 0
SMALL
GASTEIGER

@<TRIPOS>ATOM
      1 C           2.9601   32.6076    7.6948 C.3     1  UNL1        0.0578
      2 C           4.0962   30.8132    9.1542 C.ar    1  UNL1        0.1337
      3 C           4.0373   29.6808   10.0081 C.ar    1  UNL1        0.0117
      4 C           5.2289   28.9832   10.5973 C.3     1  UNL1        0.0340
      5 C           2.7728   29.1494   10.2757 C.ar    1  UNL1        0.0294
      6 C           1.6380   29.6805    9.7082 C.ar    1  UNL1        0.1083
      7 C           1.6617   30.7698    8.8647 C.ar    1  UNL1        0.1388
      8 O           0.5170   31.2360    8.2832 O.3     1  UNL1       -0.5055
      9 C           2.8990   31.3800    8.5994 C.ar    1  UNL1        0.0496
     10 C           0.4834   28.9009   10.1246 C.2     1  UNL1        0.3443
     11 O          -0.6529   29.1024    9.7761 O.2     1  UNL1       -0.2448
     12 O           0.9462   27.9222   10.9622 O.3     1  UNL1       -0.4404
     13 C           2.3703   27.9880   11.1103 C.3     1  UNL1        0.2355
     14 H          -0.2369   30.6668    8.5548 H       1  UNL1        0.2922
     15 C           5.9860   32.2901    9.4972 C.3     1  UNL1        0.2524
     16 O           5.2397   31.4071    8.6790 O.3     1  UNL1       -0.4720
     17 C           3.7053   32.3911    6.3924 C.2     1  UNL1       -0.0297
     18 C           3.1676   31.9723    5.2248 C.2     1  UNL1       -0.0473
     19 C           1.6928   31.6948    5.0578 C.3     1  UNL1        0.0260
     20 C           4.0380   31.7057    4.0009 C.3     1  UNL1        0.0334
     21 C           5.5359   31.9417    4.2205 C.3     1  UNL1        0.1139
     22 C           6.1470   33.0755    3.4244 C.2     1  UNL1        0.3174
     23 O           5.4731   33.8020    2.7005 O.2     1  UNL1       -0.2501
     24 O           7.4918   33.1961    3.5798 O.3     1  UNL1       -0.4470
     25 C           8.2712   32.1868    2.9028 C.3     1  UNL1        0.2257
     26 C           7.9083   32.1259    1.4040 C.3     1  UNL1        0.1203
     27 N           8.6551   33.0751    0.5622 N.3     1  UNL1       -0.2653
     28 C           8.9690   32.5063   -0.7706 C.3     1  UNL1        0.1047
     29 C           7.8027   32.5349   -1.7743 C.3     1  UNL1        0.1595
     30 O           7.3024   33.8655   -1.9391 O.3     1  UNL1       -0.3508
     31 C           6.8509   34.3816   -0.6827 C.3     1  UNL1        0.1595
     32 C           7.9740   34.3747    0.3689 C.3     1  UNL1        0.1047
@<TRIPOS>BOND
     1    15    16    1
     2    16     2    1
     3     2     3   ar
     4     2     9   ar
     5     3     4    1
     6     3     5   ar
     7     5     6   ar
     8     5    13    1
     9     6     7   ar
    10     6    10    1
    11     7     8    1
    12     7     9   ar
    13     8    14    1
    14     9     1    1
    15     1    17    1
    16    17    18    2
    17    18    19    1
    18    18    20    1
    19    20    21    1
    20    21    22    1
    21    22    23    2
    22    22    24    1
    23    24    25    1
    24    25    26    1
    25    26    27    1
    26    27    28    1
    27    27    32    1
    28    28    29    1
    29    29    30    1
    30    30    31    1
    31    31    32    1
    32    10    11    2
    33    10    12    1
    34    12    13    1
#	Name:			CHEMBL1460
#	Creating user name:	trannguyen
#	Creation time:		Tue Feb  8 18:26:14 2022


#	Modifying user name:	trannguyen
#	Modification time:	Tue Feb  8 18:26:14 2022

@<TRIPOS>MOLECULE
CHEMBL1460
 19 21 0 0 0
SMALL
GASTEIGER

@<TRIPOS>ATOM
      1 O           5.1699   33.1358    5.2424 O.2     1  UNL1       -0.2654
      2 C           4.1368   32.6987    5.7372 C.ar    1  UNL1        0.2795
      3 N           2.9445   32.6598    5.0279 N.ar    1  UNL1       -0.3026
      4 H           2.9916   33.0182    4.0863 H       1  UNL1        0.1705
      5 C           1.7580   32.1711    5.5450 C.ar    1  UNL1        0.1788
      6 N           1.5974   31.6952    6.7443 N.ar    1  UNL1       -0.2064
      7 C           2.7429   31.7307    7.4692 C.ar    1  UNL1        0.1709
      8 C           3.9885   32.1761    7.0800 C.ar    1  UNL1        0.1728
      9 N           4.9083   32.0404    8.0866 N.ar    1  UNL1       -0.2174
     10 C           4.2198   31.5365    9.0914 C.ar    1  UNL1        0.1816
     11 N           2.9005   31.3373    8.7688 N.ar    1  UNL1       -0.2715
     12 C           1.8639   30.8091    9.6293 C.3     1  UNL1        0.2069
     13 C           0.9797   29.7706    8.9572 C.3     1  UNL1        0.0566
     14 C           0.5543   28.9130   10.1242 C.3     1  UNL1        0.0368
     15 C           1.7866   28.9119   11.0104 C.3     1  UNL1        0.1466
     16 O           2.4668   30.1644   10.7740 O.3     1  UNL1       -0.3353
     17 C           2.7649   27.7771   10.6901 C.3     1  UNL1        0.1666
     18 O           2.0864   26.5249   10.7680 O.3     1  UNL1       -0.3795
     19 H           1.5373   26.5591   11.5752 H       1  UNL1        0.2105
@<TRIPOS>BOND
     1     1     2    2
     2     2     3   ar
     3     2     8   ar
     4     3     4    1
     5     3     5   ar
     6     5     6   ar
     7     6     7   ar
     8     7     8   ar
     9     7    11   ar
    10     8     9   ar
    11     9    10   ar
    12    10    11   ar
    13    11    12    1
    14    12    13    1
    15    12    16    1
    16    13    14    1
    17    14    15    1
    18    15    16    1
    19    15    17    1
    20    17    18    1
    21    18    19    1
#	Name:			CHEMBL1463
#	Creating user name:	trannguyen
#	Creation time:		Tue Feb  8 18:26:14 2022


#	Modifying user name:	trannguyen
#	Modification time:	Tue Feb  8 18:26:14 2022

@<TRIPOS>MOLECULE
CHEMBL1463
 12 12 0 0 0
SMALL
GASTEIGER

@<TRIPOS>ATOM
      1 N          -0.0796   29.9537    9.4183 N.pl3   1  UNL1       -0.3422
      2 C           1.1158   29.4716    9.8950 C.ar    1  UNL1        0.1358
      3 N           1.1329   28.3001   10.5948 N.ar    1  UNL1       -0.2924
      4 H           0.2791   27.7810   10.7334 H       1  UNL1        0.1717
      5 C           2.2570   27.7114   11.1330 C.ar    1  UNL1        0.3479
      6 O           2.1345   26.6666   11.7623 O.2     1  UNL1       -0.2447
      7 N           3.4709   28.3276   10.9402 N.ar    1  UNL1       -0.1884
      8 C           3.4772   29.4352   10.2758 C.ar    1  UNL1        0.1360
      9 C           2.2902   30.0915    9.7205 C.ar    1  UNL1        0.1884
     10 F           2.4513   31.2604    9.0774 F       1  UNL1       -0.1996
     11 H          -0.8795   29.7103    9.9938 H       1  UNL1        0.1437
     12 H          -0.0520   30.9442    9.1807 H       1  UNL1        0.1437
@<TRIPOS>BOND
     1     1     2    1
     2     1    11    1
     3     1    12    1
     4     2     3   ar
     5     2     9   ar
     6     3     4    1
     7     3     5   ar
     8     5     6    2
     9     5     7   ar
    10     7     8   ar
    11     8     9   ar
    12     9    10    1
#	Name:			CHEMBL1464
#	Creating user name:	trannguyen
#	Creation time:		Tue Feb  8 18:26:14 2022


#	Modifying user name:	trannguyen
#	Modification time:	Tue Feb  8 18:26:14 2022

@<TRIPOS>MOLECULE
CHEMBL1464
 24 26 0 0 0
SMALL
GASTEIGER

@<TRIPOS>ATOM
      1 C           2.9253   32.1492    8.0048 C.ar    1  UNL1        0.0916
      2 C           2.2969   31.7994    6.8619 C.ar    1  UNL1        0.1390
      3 O           1.2317   30.9283    6.8599 O.3     1  UNL1       -0.5055
      4 C           2.7455   32.2823    5.5549 C.ar    1  UNL1        0.0682
      5 C           2.0449   32.0837    4.3547 C.ar    1  UNL1        0.0061
      6 C           2.5863   32.5019    3.1336 C.ar    1  UNL1        0.0003
      7 C           3.8417   33.1051    3.0934 C.ar    1  UNL1        0.0031
      8 C           4.5394   33.3272    4.2789 C.ar    1  UNL1        0.0377
      9 C           3.9694   32.9349    5.4905 C.ar    1  UNL1        0.1516
     10 O           4.6706   33.2553    6.6591 O.2     1  UNL1       -0.4211
     11 C           4.1149   33.0493    7.9315 C.ar    1  UNL1        0.3449
     12 O           4.5918   33.5736    8.9167 O.2     1  UNL1       -0.2447
     13 H           0.5041   31.3683    6.3764 H       1  UNL1        0.2922
     14 C           2.5057   31.7602    9.4266 C.3     1  UNL1        0.0613
     15 C           2.8598   30.2872    9.7297 C.ar    1  UNL1       -0.0177
     16 C           1.8708   29.3121    9.9480 C.ar    1  UNL1       -0.0039
     17 C           2.2143   27.9774   10.2129 C.ar    1  UNL1       -0.0003
     18 C           3.5508   27.5896   10.2657 C.ar    1  UNL1       -0.0000
     19 C           4.5454   28.5344   10.0332 C.ar    1  UNL1       -0.0003
     20 C           4.2038   29.8668    9.7591 C.ar    1  UNL1       -0.0039
     21 C           1.0558   32.1021    9.8678 C.3     1  UNL1        0.0735
     22 C           2.0566   34.3437   10.7349 C.3     1  UNL1        0.0723
     23 C           0.8411   33.5357   10.3556 C.2     1  UNL1        0.1518
     24 O          -0.2850   34.0261   10.4719 O.2     1  UNL1       -0.2960
@<TRIPOS>BOND
     1    22    23    1
     2    23    24    2
     3    23    21    1
     4    21    14    1
     5    14    15    1
     6    14     1    1
     7    15    16   ar
     8    15    20   ar
     9    16    17   ar
    10    17    18   ar
    11    18    19   ar
    12    19    20   ar
    13     1     2   ar
    14     1    11   ar
    15     2     3    1
    16     2     4   ar
    17     3    13    1
    18     4     5   ar
    19     4     9   ar
    20     5     6   ar
    21     6     7   ar
    22     7     8   ar
    23     8     9   ar
    24     9    10   ar
    25    10    11   ar
    26    11    12    2
#	Name:			CHEMBL1466
#	Creating user name:	trannguyen
#	Creation time:		Tue Feb  8 18:26:14 2022


#	Modifying user name:	trannguyen
#	Modification time:	Tue Feb  8 18:26:14 2022

@<TRIPOS>MOLECULE
CHEMBL1466
 27 30 0 0 0
SMALL
GASTEIGER

@<TRIPOS>ATOM
      1 C           7.8048   32.7909    2.8363 C.3     1  UNL1        0.0720
      2 O           7.6308   30.5881    1.1440 O.2     1  UNL1       -0.2447
      3 C           7.7100   31.6690    0.5627 C.ar    1  UNL1        0.3449
      4 O           7.7300   31.7426   -0.8199 O.2     1  UNL1       -0.4211
      5 C           7.8008   32.9775   -1.4875 C.ar    1  UNL1        0.1516
      6 C           7.8156   32.9410   -2.8816 C.ar    1  UNL1        0.0377
      7 C           7.8859   34.1363   -3.5918 C.ar    1  UNL1        0.0031
      8 C           7.9447   35.3486   -2.9044 C.ar    1  UNL1        0.0003
      9 C           7.9393   35.3679   -1.5047 C.ar    1  UNL1        0.0061
     10 C           7.8620   34.1735   -0.7774 C.ar    1  UNL1        0.0682
     11 C           7.8718   34.1032    0.6828 C.ar    1  UNL1        0.1390
     12 O           8.0134   35.2854    1.3712 O.3     1  UNL1       -0.5055
     13 C           7.7798   32.9321    1.3299 C.ar    1  UNL1        0.0921
     14 H           7.3145   35.8982    1.0809 H       1  UNL1        0.2922
     15 C           6.4344   32.8851    3.4762 C.ar    1  UNL1        0.0921
     16 C           5.5621   31.8664    3.5992 C.ar    1  UNL1        0.1390
     17 O           5.7691   30.5916    3.1100 O.3     1  UNL1       -0.5055
     18 C           4.2873   32.0427    4.2965 C.ar    1  UNL1        0.0682
     19 C           3.3277   31.0304    4.4217 C.ar    1  UNL1        0.0061
     20 C           2.1222   31.2669    5.0935 C.ar    1  UNL1        0.0003
     21 C           1.8635   32.5184    5.6520 C.ar    1  UNL1        0.0031
     22 C           2.8078   33.5338    5.5354 C.ar    1  UNL1        0.0377
     23 C           4.0006   33.2805    4.8572 C.ar    1  UNL1        0.1516
     24 O           4.9077   34.3423    4.7559 O.2     1  UNL1       -0.4211
     25 C           6.1103   34.2080    4.0832 C.ar    1  UNL1        0.3449
     26 O           6.8746   35.1662    4.0043 O.2     1  UNL1       -0.2447
     27 H           6.4603   30.5806    2.4143 H       1  UNL1        0.2922
@<TRIPOS>BOND
     1     2     3    2
     2     3     4   ar
     3     3    13   ar
     4     4     5   ar
     5     5     6   ar
     6     5    10   ar
     7     6     7   ar
     8     7     8   ar
     9     8     9   ar
    10     9    10   ar
    11    10    11   ar
    12    11    12    1
    13    11    13   ar
    14    12    14    1
    15    13     1    1
    16     1    15    1
    17    15    16   ar
    18    15    25   ar
    19    16    17    1
    20    16    18   ar
    21    17    27    1
    22    18    19   ar
    23    18    23   ar
    24    19    20   ar
    25    20    21   ar
    26    21    22   ar
    27    22    23   ar
    28    23    24   ar
    29    24    25   ar
    30    25    26    2
#	Name:			CHEMBL1467
#	Creating user name:	trannguyen
#	Creation time:		Tue Feb  8 18:26:14 2022


#	Modifying user name:	trannguyen
#	Modification time:	Tue Feb  8 18:26:14 2022

@<TRIPOS>MOLECULE
CHEMBL1467
 12 13 0 0 0
SMALL
GASTEIGER

@<TRIPOS>ATOM
      1 O           2.1013   26.8371   11.6614 O.2     1  UNL1       -0.2650
      2 C           2.4366   27.8491   11.0604 C.ar    1  UNL1        0.2851
      3 N           3.7281   28.2960   10.9491 N.ar    1  UNL1       -0.1854
      4 C           4.0207   29.3697   10.2864 C.ar    1  UNL1        0.2030
      5 N           3.1556   30.1944    9.6080 N.ar    1  UNL1       -0.2052
      6 C           1.9154   29.8567    9.6388 C.ar    1  UNL1        0.1624
      7 N           0.8317   30.4784    9.0362 N.ar    1  UNL1       -0.2824
      8 H           0.8707   31.4958    9.0013 H       1  UNL1        0.1883
      9 N          -0.2948   29.8562    9.5479 N.ar    1  UNL1       -0.2956
     10 H          -1.0514   29.6505    8.8891 H       1  UNL1        0.1868
     11 C           0.1271   28.7497   10.2787 C.ar    1  UNL1        0.0965
     12 C           1.4595   28.6940   10.4077 C.ar    1  UNL1        0.1114
@<TRIPOS>BOND
     1     1     2    2
     2     2     3   ar
     3     2    12   ar
     4     3     4   ar
     5     4     5   ar
     6     5     6   ar
     7     6     7   ar
     8     6    12    1
     9     7     8    1
    10     7     9   ar
    11     9    10    1
    12     9    11   ar
    13    11    12   ar
#	Name:			CHEMBL146964
#	Creating user name:	trannguyen
#	Creation time:		Tue Feb  8 18:26:14 2022


#	Modifying user name:	trannguyen
#	Modification time:	Tue Feb  8 18:26:14 2022

@<TRIPOS>MOLECULE
CHEMBL146964
 32 32 0 0 0
SMALL
GASTEIGER

@<TRIPOS>ATOM
      1 C           2.5857   31.1570    9.1692 C.3     1  UNL1        0.0039
      2 C           1.5652   30.6228    8.1546 C.3     1  UNL1        0.0001
      3 C           1.4773   31.4420    6.8909 C.3     1  UNL1        0.0003
      4 C           2.8422   31.5035    6.2437 C.3     1  UNL1        0.0045
      5 C           3.8422   32.2224    7.1566 C.3     1  UNL1        0.0254
      6 C           3.9802   31.5442    8.5563 C.3     1  UNL1        0.0479
      7 C           5.1468   32.3422    6.3951 C.2     1  UNL1       -0.0285
      8 C           5.1950   32.4401    5.0550 C.2     1  UNL1       -0.0020
      9 C           6.4527   32.3867    4.2378 C.3     1  UNL1        0.1346
     10 O           6.4511   31.1440    3.5463 O.3     1  UNL1       -0.3800
     11 H           6.1421   30.4657    4.1736 H       1  UNL1        0.2108
     12 C           6.5089   33.5121    3.2051 C.3     1  UNL1        0.0636
     13 C           7.8278   33.5917    2.4189 C.3     1  UNL1        0.1244
     14 O           8.7056   32.6055    2.9850 O.3     1  UNL1       -0.3838
     15 H           8.9598   32.9360    3.8683 H       1  UNL1        0.2104
     16 C           7.6604   33.2603    0.9417 C.3     1  UNL1        0.1385
     17 C           8.1376   31.8711    0.6391 C.2     1  UNL1        0.3163
     18 O           7.4491   30.8560    0.8172 O.2     1  UNL1       -0.2502
     19 O           9.4000   31.8115    0.1677 O.3     1  UNL1       -0.4801
     20 H           9.7594   32.7006   -0.0254 H       1  UNL1        0.2951
     21 C           2.7067   30.1277   10.3205 C.3     1  UNL1        0.0001
     22 C           3.0339   27.6165   10.1686 C.3     1  UNL1        0.0000
     23 C           3.6692   28.9800    9.9740 C.3     1  UNL1        0.0000
     24 C           4.7998   32.4724    9.5105 C.3     1  UNL1        0.2086
     25 O           5.9234   31.7550   10.0616 O.3     1  UNL1       -0.4485
     26 C           6.9147   32.5006   10.6245 C.2     1  UNL1        0.3159
     27 O           6.8061   33.0880   11.6995 O.2     1  UNL1       -0.2501
     28 C           8.1432   32.6101    9.6991 C.3     1  UNL1        0.0896
     29 C           9.3543   32.9474   10.5674 C.3     1  UNL1        0.0111
     30 C           8.3784   31.2748    8.9684 C.3     1  UNL1        0.0111
     31 C           7.8924   33.7305    8.6459 C.3     1  UNL1        0.0106
     32 C           8.4670   33.4542    7.2570 C.3     1  UNL1        0.0006
@<TRIPOS>BOND
     1    22    23    1
     2    23    21    1
     3     1     2    1
     4     1     6    1
     5     1    21    1
     6     2     3    1
     7     3     4    1
     8     4     5    1
     9     5     7    1
    10     5     6    1
    11     7     8    2
    12     8     9    1
    13     9    10    1
    14     9    12    1
    15    10    11    1
    16    12    13    1
    17    13    14    1
    18    13    16    1
    19    14    15    1
    20    16    17    1
    21    17    18    2
    22    17    19    1
    23    19    20    1
    24     6    24    1
    25    24    25    1
    26    25    26    1
    27    26    27    2
    28    26    28    1
    29    28    29    1
    30    28    30    1
    31    28    31    1
    32    31    32    1
#	Name:			CHEMBL147231
#	Creating user name:	trannguyen
#	Creation time:		Tue Feb  8 18:26:14 2022


#	Modifying user name:	trannguyen
#	Modification time:	Tue Feb  8 18:26:14 2022

@<TRIPOS>MOLECULE
CHEMBL147231
 29 29 0 0 0
SMALL
GASTEIGER

@<TRIPOS>ATOM
      1 C           3.8248   33.1690    5.7370 C.3     1  UNL1        0.0439
      2 C           2.8883   33.9543    4.8007 C.3     1  UNL1        0.0037
      3 C           2.6275   33.2592    3.4650 C.3     1  UNL1        0.0001
      4 C           2.2309   31.7929    3.6291 C.3     1  UNL1        0.0000
      5 C           3.1527   31.0319    4.5845 C.3     1  UNL1        0.0001
      6 C           3.3043   31.7146    5.9558 C.3     1  UNL1        0.0037
      7 C           5.2981   33.2147    5.2462 C.3     1  UNL1        0.2083
      8 O           6.2001   33.4612    6.3397 O.3     1  UNL1       -0.4485
      9 C           6.9416   32.4101    6.7690 C.2     1  UNL1        0.3159
     10 O           7.3854   31.5420    6.0035 O.2     1  UNL1       -0.2501
     11 C           7.1580   32.4031    8.2860 C.3     1  UNL1        0.0896
     12 C           7.7906   33.7417    8.7047 C.3     1  UNL1        0.0111
     13 C           8.1398   31.2717    8.6786 C.3     1  UNL1        0.0111
     14 C           5.2014   33.4314    9.6853 C.3     1  UNL1        0.0006
     15 C           5.8010   32.1914    9.0142 C.3     1  UNL1        0.0106
     16 C           2.0003   31.6631    6.8112 C.3     1  UNL1        0.0026
     17 C           2.1140   32.2338    8.2563 C.3     1  UNL1        0.0293
     18 C           1.8394   31.2009    9.3654 C.3     1  UNL1        0.1130
     19 O           1.8712   31.8722   10.6292 O.3     1  UNL1       -0.3844
     20 H           1.1290   32.5073   10.6442 H       1  UNL1        0.2103
     21 C           0.5132   30.4006    9.2430 C.3     1  UNL1        0.0590
     22 C           0.5074   29.1957   10.2229 C.3     1  UNL1        0.1241
     23 O          -0.7817   28.5643   10.1943 O.3     1  UNL1       -0.3838
     24 H          -1.4412   29.2586   10.4104 H       1  UNL1        0.2104
     25 C           1.5007   28.0813    9.9108 C.3     1  UNL1        0.1385
     26 C           2.3870   27.6646   11.0443 C.2     1  UNL1        0.3163
     27 O           2.2082   26.7103   11.7648 O.2     1  UNL1       -0.2502
     28 O           3.4045   28.5174   11.2987 O.3     1  UNL1       -0.4801
     29 H           3.8147   28.1385   12.1069 H       1  UNL1        0.2951
@<TRIPOS>BOND
     1    14    15    1
     2    15    11    1
     3    11    12    1
     4    11    13    1
     5    11     9    1
     6     9    10    2
     7     9     8    1
     8     8     7    1
     9     7     1    1
    10     1     2    1
    11     1     6    1
    12     2     3    1
    13     3     4    1
    14     4     5    1
    15     5     6    1
    16     6    16    1
    17    16    17    1
    18    17    18    1
    19    18    19    1
    20    18    21    1
    21    19    20    1
    22    21    22    1
    23    22    23    1
    24    22    25    1
    25    23    24    1
    26    25    26    1
    27    26    27    2
    28    26    28    1
    29    28    29    1
#	Name:			CHEMBL1475
#	Creating user name:	trannguyen
#	Creation time:		Tue Feb  8 18:26:14 2022


#	Modifying user name:	trannguyen
#	Modification time:	Tue Feb  8 18:26:14 2022

@<TRIPOS>MOLECULE
CHEMBL1475
 17 19 0 0 0
SMALL
GASTEIGER

@<TRIPOS>ATOM
      1 C           6.6303   33.2327    6.4158 C.3     1  UNL1        0.0725
      2 C           5.5994   32.5904    7.2534 C.ar    1  UNL1        0.1233
      3 C           4.2276   32.6522    7.2128 C.ar    1  UNL1        0.0360
      4 C           3.7598   31.7288    8.1732 C.ar    1  UNL1        0.0371
      5 C           2.4836   31.2823    8.5399 C.ar    1  UNL1        0.0058
      6 C           2.3544   30.2260    9.4458 C.ar    1  UNL1        0.0308
      7 C           1.0579   29.5856    9.7173 C.ar    1  UNL1       -0.0125
      8 C          -0.2169   30.0306    9.0538 C.3     1  UNL1        0.0313
      9 C           1.0338   28.5289   10.5410 C.ar    1  UNL1        0.0781
     10 C           2.2223   27.9943   11.2200 C.ar    1  UNL1        0.3456
     11 O           2.1401   27.0196   11.9492 O.2     1  UNL1       -0.2445
     12 O           3.4156   28.6609   10.9878 O.2     1  UNL1       -0.4213
     13 C           3.5174   29.7395   10.0691 C.ar    1  UNL1        0.1473
     14 C           4.8234   30.2330    9.8183 C.ar    1  UNL1        0.0472
     15 C           6.0361   29.7603   10.5589 C.3     1  UNL1        0.0375
     16 C           4.8787   31.1958    8.7999 C.ar    1  UNL1        0.1437
     17 O           6.0088   31.7435    8.2462 O.2     1  UNL1       -0.4580
@<TRIPOS>BOND
     1     1     2    1
     2     2     3   ar
     3     2    17   ar
     4     3     4   ar
     5     4     5   ar
     6     4    16   ar
     7     5     6   ar
     8     6     7   ar
     9     6    13   ar
    10     7     8    1
    11     7     9   ar
    12     9    10   ar
    13    10    11    2
    14    10    12   ar
    15    12    13   ar
    16    13    14   ar
    17    14    15    1
    18    14    16   ar
    19    16    17   ar
#	Name:			CHEMBL1479
#	Creating user name:	trannguyen
#	Creation time:		Tue Feb  8 18:26:14 2022


#	Modifying user name:	trannguyen
#	Modification time:	Tue Feb  8 18:26:14 2022

@<TRIPOS>MOLECULE
CHEMBL1479
 26 30 0 0 0
SMALL
GASTEIGER

@<TRIPOS>ATOM
      1 C          10.8553   34.0413    7.0808 C.3     1  UNL1        0.1420
      2 O          11.1287   35.4391    7.4698 O.3     1  UNL1       -0.3753
      3 C          10.9164   33.3130    8.5169 C.3     1  UNL1        0.0395
      4 C           9.7149   33.7564    9.2812 C.3     1  UNL1        0.0035
      5 C           8.6558   33.5273    8.2412 C.3     1  UNL1        0.0032
      6 C           8.2098   32.0477    8.0619 C.3     1  UNL1        0.0007
      7 C           8.3696   31.1029    9.2590 C.3     1  UNL1        0.0044
      8 C           7.3057   31.2894   10.2955 C.3     1  UNL1        0.0221
      9 C           6.0142   31.0752    9.5782 C.2     1  UNL1       -0.0414
     10 C           5.4000   29.8905    9.6866 C.2     1  UNL1        0.0314
     11 C           4.0162   30.0892    9.8501 C.ar    1  UNL1        0.1723
     12 O           3.2257   29.5845   10.8371 O.2     1  UNL1       -0.3537
     13 N           2.0580   30.3413   10.9011 N.ar    1  UNL1       -0.0757
     14 C           2.1770   31.2680    9.9460 C.ar    1  UNL1        0.1394
     15 C           3.3423   31.0900    9.1779 C.ar    1  UNL1        0.0376
     16 C           4.0773   31.8442    8.0733 C.3     1  UNL1        0.0349
     17 C           5.5877   32.1637    8.5331 C.3     1  UNL1        0.0195
     18 C           5.4486   33.5565    9.2015 C.3     1  UNL1        0.0044
     19 C           6.7770   32.0683    7.4144 C.3     1  UNL1        0.0038
     20 C           6.8876   33.0842    6.2205 C.3     1  UNL1        0.0004
     21 C           8.4142   33.3722    5.7447 C.3     1  UNL1        0.0032
     22 C           9.2515   34.0795    6.8609 C.3     1  UNL1        0.0333
     23 C           8.7610   35.5902    6.7963 C.3     1  UNL1        0.0033
     24 H          11.5102   35.8775    6.6899 H       1  UNL1        0.2114
     25 C          13.3534   33.4119    6.5313 C.1     1  UNL1       -0.0119
     26 C          12.2247   33.6962    6.7796 C.1     1  UNL1       -0.0526
@<TRIPOS>BOND
     1    25    26    3
     2     1     3    1
     3     1    22    1
     4     1    26    1
     5     1     2    1
     6     2    24    1
     7     3     4    1
     8     4     5    1
     9     5     6    1
    10     5    22    1
    11     6     7    1
    12     6    19    1
    13     7     8    1
    14     8     9    1
    15     9    10    2
    16     9    17    1
    17    10    11    1
    18    11    12   ar
    19    11    15   ar
    20    12    13   ar
    21    13    14   ar
    22    14    15   ar
    23    15    16    1
    24    16    17    1
    25    17    19    1
    26    17    18    1
    27    19    20    1
    28    20    21    1
    29    21    22    1
    30    22    23    1
#	Name:			CHEMBL1480987
#	Creating user name:	trannguyen
#	Creation time:		Tue Feb  8 18:26:14 2022


#	Modifying user name:	trannguyen
#	Modification time:	Tue Feb  8 18:26:14 2022

@<TRIPOS>MOLECULE
CHEMBL1480987
 21 22 0 0 0
SMALL
GASTEIGER

@<TRIPOS>ATOM
      1 C           2.0557   31.7735    7.0509 C.2     1  UNL1        0.3484
      2 O           1.6364   31.0480    6.1537 O.2     1  UNL1       -0.2470
      3 C           1.6429   31.6100    8.5201 C.3     1  UNL1        0.2324
      4 O           0.2237   31.5704    8.6860 O.3     1  UNL1       -0.3705
      5 H          -0.1307   31.1425    7.8848 H       1  UNL1        0.2114
      6 C           2.2158   30.3839    9.1949 C.ar    1  UNL1        0.0151
      7 C           1.3683   29.3343    9.5747 C.ar    1  UNL1       -0.0014
      8 C           1.8824   28.1777   10.1590 C.ar    1  UNL1       -0.0002
      9 C           3.2532   28.0538   10.3690 C.ar    1  UNL1       -0.0000
     10 C           4.1106   29.0883    9.9975 C.ar    1  UNL1       -0.0002
     11 C           3.5978   30.2479    9.4150 C.ar    1  UNL1       -0.0014
     12 O           2.9001   32.8293    6.8758 O.3     1  UNL1       -0.4504
     13 C           6.4636   31.4822    4.4649 C.3     1  UNL1        0.0001
     14 C           6.1875   32.8953    4.9723 C.3     1  UNL1        0.0036
     15 C           4.7027   33.1045    5.2861 C.3     1  UNL1        0.0436
     16 C           4.2789   32.4880    6.6208 C.3     1  UNL1        0.1689
     17 C           5.1262   33.0588    7.7624 C.3     1  UNL1        0.0436
     18 C           6.6428   32.8473    7.5644 C.3     1  UNL1        0.0035
     19 C           7.0230   31.3753    7.8135 C.3     1  UNL1        0.0001
     20 C           7.4041   33.6891    8.6107 C.3     1  UNL1        0.0001
     21 C           7.0773   33.3184    6.1525 C.3     1  UNL1        0.0002
@<TRIPOS>BOND
     1    13    14    1
     2    14    15    1
     3    14    21    1
     4    15    16    1
     5    16    12    1
     6    16    17    1
     7    12     1    1
     8     1     2    2
     9     1     3    1
    10     3     4    1
    11     3     6    1
    12     4     5    1
    13     6     7   ar
    14     6    11   ar
    15     7     8   ar
    16     8     9   ar
    17     9    10   ar
    18    10    11   ar
    19    17    18    1
    20    18    19    1
    21    18    20    1
    22    18    21    1
#	Name:			CHEMBL1480
#	Creating user name:	trannguyen
#	Creation time:		Tue Feb  8 18:26:14 2022


#	Modifying user name:	trannguyen
#	Modification time:	Tue Feb  8 18:26:14 2022

@<TRIPOS>MOLECULE
CHEMBL1480
 26 27 0 0 0
SMALL
GASTEIGER

@<TRIPOS>ATOM
      1 C           3.3461   32.0664    6.6615 C.2     1  UNL1        0.0707
      2 C           2.0570   31.9376    6.2774 C.2     1  UNL1        0.0283
      3 C           1.4603   32.4408    4.9828 C.3     1  UNL1        0.0470
      4 N           1.1658   31.2757    7.1017 N.pl3   1  UNL1       -0.3192
      5 C           1.4912   30.6575    8.3005 C.2     1  UNL1        0.0283
      6 C           0.3347   29.9708    8.9916 C.3     1  UNL1        0.0470
      7 C           2.7631   30.7008    8.7595 C.2     1  UNL1        0.0707
      8 C           3.8430   31.4696    7.9820 C.3     1  UNL1        0.0821
      9 H           0.1945   31.2434    6.8022 H       1  UNL1        0.1516
     10 C           4.6198   32.5026    8.8339 C.ar    1  UNL1       -0.0024
     11 C           3.8909   33.6262    9.2968 C.ar    1  UNL1       -0.0027
     12 C           4.4624   34.5838   10.1309 C.ar    1  UNL1        0.0006
     13 C           5.7804   34.4357   10.5389 C.ar    1  UNL1        0.0122
     14 C           6.5317   33.3441   10.0920 C.ar    1  UNL1        0.0679
     15 CL          8.1580   33.2311   10.6793 Cl      1  UNL1       -0.0814
     16 C           5.9678   32.3826    9.2280 C.ar    1  UNL1        0.0648
     17 CL          6.9404   31.0613    8.6709 Cl      1  UNL1       -0.0817
     18 C           4.3859   32.7867    5.8759 C.2     1  UNL1        0.3387
     19 O           4.3769   33.9778    5.6627 O.2     1  UNL1       -0.2452
     20 O           5.2326   31.8817    5.3232 O.3     1  UNL1       -0.4456
     21 C           6.3533   30.9279    3.4723 C.3     1  UNL1        0.0513
     22 C           5.1122   31.6716    3.9182 C.3     1  UNL1        0.2089
     23 C           3.1866   29.9654    9.9868 C.2     1  UNL1        0.3388
     24 O           2.7110   30.1031   11.0976 O.2     1  UNL1       -0.2452
     25 O           4.1882   29.0999    9.6780 O.3     1  UNL1       -0.4415
     26 C           3.9672   27.7375   10.0372 C.3     1  UNL1        0.2559
@<TRIPOS>BOND
     1    21    22    1
     2    22    20    1
     3    20    18    1
     4    18    19    2
     5    18     1    1
     6     1     2    2
     7     1     8    1
     8     2     3    1
     9     2     4    1
    10     4     5    1
    11     4     9    1
    12     5     6    1
    13     5     7    2
    14     7    23    1
    15     7     8    1
    16    23    24    2
    17    23    25    1
    18    25    26    1
    19     8    10    1
    20    10    11   ar
    21    10    16   ar
    22    11    12   ar
    23    12    13   ar
    24    13    14   ar
    25    14    15    1
    26    14    16   ar
    27    16    17    1
#	Name:			CHEMBL1481
#	Creating user name:	trannguyen
#	Creation time:		Tue Feb  8 18:26:14 2022


#	Modifying user name:	trannguyen
#	Modification time:	Tue Feb  8 18:26:14 2022

@<TRIPOS>MOLECULE
CHEMBL1481
 37 39 0 0 0
SMALL
GASTEIGER

@<TRIPOS>ATOM
      1 C           6.6834   32.7447    3.9290 C.ar    1  UNL1       -0.0204
      2 C           6.1036   31.4695    3.8709 C.ar    1  UNL1       -0.0028
      3 C           4.7186   31.3186    3.9314 C.ar    1  UNL1        0.0199
      4 C           3.9009   32.4508    4.0192 C.ar    1  UNL1        0.1253
      5 C           4.4563   33.7263    4.0943 C.ar    1  UNL1        0.0199
      6 C           5.8480   33.8690    4.0512 C.ar    1  UNL1       -0.0028
      7 S           2.1424   32.2153    4.0165 S.O2    1  UNL1        0.0768
      8 O           1.5510   33.4961    4.3418 O.2     1  UNL1       -0.1498
      9 O           1.7591   31.5014    2.8162 O.2     1  UNL1       -0.1498
     10 N           1.9586   31.2611    5.3737 N.am    1  UNL1       -0.1693
     11 C           2.1464   31.6731    6.6781 C.2     1  UNL1        0.3194
     12 O           2.4039   32.8324    6.9938 O.2     1  UNL1       -0.2512
     13 N           2.0043   30.6657    7.5872 N.am    1  UNL1       -0.2894
     14 H           1.6137   30.3371    5.1632 H       1  UNL1        0.1781
     15 H           1.7839   29.7401    7.2509 H       1  UNL1        0.1509
     16 C           2.1158   30.8985    9.0250 C.3     1  UNL1        0.0731
     17 C           0.8201   30.5514    9.7640 C.3     1  UNL1        0.0196
     18 C           0.5331   29.0507    9.7391 C.3     1  UNL1        0.0017
     19 C           1.6994   28.1828   10.2433 C.3     1  UNL1        0.0001
     20 C           1.7394   28.1364   11.7734 C.3     1  UNL1        0.0000
     21 C           3.0527   28.6086    9.6509 C.3     1  UNL1        0.0017
     22 C           3.2801   30.1204    9.6454 C.3     1  UNL1        0.0196
     23 C           8.1891   32.8906    3.8619 C.3     1  UNL1        0.0476
     24 C           8.8171   32.1312    2.6855 C.3     1  UNL1        0.0956
     25 C           9.2356   34.2369   -2.4868 C.2     1  UNL1        0.0255
     26 C           8.3865   33.3806   -3.0778 C.2     1  UNL1       -0.0233
     27 C           8.2191   33.1115   -4.5346 C.3     1  UNL1        0.0279
     28 C           7.5701   32.6122   -2.0833 C.3     1  UNL1        0.1249
     29 N           8.1051   33.0687   -0.8276 N.am    1  UNL1       -0.2071
     30 C           8.0260   32.2836    0.3139 C.2     1  UNL1        0.3102
     31 O           7.5099   31.1683    0.3213 O.2     1  UNL1       -0.2522
     32 N           8.6366   32.8220    1.4199 N.am    1  UNL1       -0.2881
     33 C           9.0134   34.0990   -1.0300 C.2     1  UNL1        0.2516
     34 O           9.5297   34.8102   -0.1819 O.2     1  UNL1       -0.2698
     35 H           8.9941   33.7711    1.3291 H       1  UNL1        0.1510
     36 C          11.7086   34.6311   -2.7760 C.3     1  UNL1        0.0052
     37 C          10.2941   35.1438   -3.0186 C.3     1  UNL1        0.0304
@<TRIPOS>BOND
     1    36    37    1
     2    37    25    1
     3    25    26    2
     4    25    33    1
     5    26    27    1
     6    26    28    1
     7    28    29    1
     8    29    30   am
     9    29    33   am
    10    30    31    2
    11    30    32   am
    12    32    24    1
    13    32    35    1
    14    24    23    1
    15    23     1    1
    16     1     2   ar
    17     1     6   ar
    18     2     3   ar
    19     3     4   ar
    20     4     7    1
    21     4     5   ar
    22     7     8    2
    23     7     9    2
    24     7    10    1
    25    10    11   am
    26    10    14    1
    27    11    12    2
    28    11    13   am
    29    13    16    1
    30    13    15    1
    31    16    17    1
    32    16    22    1
    33    17    18    1
    34    18    19    1
    35    19    20    1
    36    19    21    1
    37    21    22    1
    38     5     6   ar
    39    33    34    2
#	Name:			CHEMBL1483
#	Creating user name:	trannguyen
#	Creation time:		Tue Feb  8 18:26:14 2022


#	Modifying user name:	trannguyen
#	Modification time:	Tue Feb  8 18:26:14 2022

@<TRIPOS>MOLECULE
CHEMBL1483
 20 21 0 0 0
SMALL
GASTEIGER

@<TRIPOS>ATOM
      1 C           2.6185   33.5470    9.8334 C.ar    1  UNL1        0.0267
      2 C           1.3329   33.1181   10.1888 C.ar    1  UNL1        0.0078
      3 C           0.3200   34.0355   10.5052 C.ar    1  UNL1        0.0212
      4 C           0.6164   35.4040   10.4555 C.ar    1  UNL1        0.0997
      5 N          -0.2086   36.4943   10.6085 N.ar    1  UNL1       -0.2136
      6 C           0.5872   37.5350   10.5667 C.ar    1  UNL1        0.2029
      7 N           1.8864   37.1637   10.3259 N.ar    1  UNL1       -0.3252
      8 H           2.6596   37.8053   10.2310 H       1  UNL1        0.1686
      9 C           1.9231   35.8009   10.1937 C.ar    1  UNL1        0.0770
     10 C           2.9530   34.9090    9.8764 C.ar    1  UNL1        0.0247
     11 N           0.1990   38.8371   10.7354 N.am    1  UNL1       -0.2212
     12 C           0.8901   39.8337   10.1115 C.2     1  UNL1        0.4076
     13 O           1.6947   39.6901    9.1866 O.2     1  UNL1       -0.2260
     14 H          -0.2413   39.0794   11.6123 H       1  UNL1        0.1610
     15 O           0.6043   41.0188   10.6995 O.3     1  UNL1       -0.4303
     16 C           1.3649   42.1328   10.2250 C.3     1  UNL1        0.2574
     17 S           3.8508   32.3585    9.3115 S.3     1  UNL1       -0.1136
     18 C           2.7864   30.8767    9.1477 C.3     1  UNL1        0.0622
     19 C           4.5949   29.3134    9.9428 C.3     1  UNL1        0.0009
     20 C           3.1763   29.8178   10.1771 C.3     1  UNL1        0.0120
@<TRIPOS>BOND
     1    19    20    1
     2    20    18    1
     3    18    17    1
     4    17     1    1
     5     1     2   ar
     6     1    10   ar
     7     2     3   ar
     8     3     4   ar
     9     4     5   ar
    10     4     9   ar
    11     5     6   ar
    12     6    11    1
    13     6     7   ar
    14    11    12   am
    15    11    14    1
    16    12    13    2
    17    12    15    1
    18    15    16    1
    19     7     8    1
    20     7     9   ar
    21     9    10   ar
#	Name:			CHEMBL1489254
#	Creating user name:	trannguyen
#	Creation time:		Tue Feb  8 18:26:14 2022


#	Modifying user name:	trannguyen
#	Modification time:	Tue Feb  8 18:26:14 2022

@<TRIPOS>MOLECULE
CHEMBL1489254
 15 14 0 0 0
SMALL
GASTEIGER

@<TRIPOS>ATOM
      1 C           3.8350   30.3369    9.5033 C.3     1  UNL1        0.2556
      2 C           5.2123   31.0090    9.4102 C.3     1  UNL1        0.2556
      3 O           5.9176   30.8941   10.6597 O.3     1  UNL1       -0.4444
      4 C           7.8672   31.7744    9.7201 C.3     1  UNL1        0.1212
      5 C           6.9055   31.8078   10.8720 C.2     1  UNL1        0.3177
      6 O           7.0004   32.5311   11.8451 O.2     1  UNL1       -0.2501
      7 C           3.9159   28.9796   10.2006 C.3     1  UNL1        0.2556
      8 O           2.9940   28.9254   11.3054 O.3     1  UNL1       -0.4444
      9 C           2.0541   27.9466   11.2471 C.2     1  UNL1        0.3177
     10 C           0.7660   28.4798   10.7039 C.3     1  UNL1        0.1212
     11 O           2.2151   26.7784   11.5747 O.2     1  UNL1       -0.2501
     12 O           2.9513   31.1973   10.2689 O.3     1  UNL1       -0.4444
     13 C           2.1222   32.0084    9.5577 C.2     1  UNL1        0.3177
     14 C           1.5791   31.2849    8.3636 C.3     1  UNL1        0.1212
     15 O           1.8237   33.1568    9.8495 O.2     1  UNL1       -0.2501
@<TRIPOS>BOND
     1     4     5    1
     2     5     6    2
     3     5     3    1
     4     3     2    1
     5     2     1    1
     6     1     7    1
     7     1    12    1
     8     7     8    1
     9     8     9    1
    10     9    10    1
    11     9    11    2
    12    12    13    1
    13    13    14    1
    14    13    15    2
#	Name:			CHEMBL1489
#	Creating user name:	trannguyen
#	Creation time:		Tue Feb  8 18:26:14 2022


#	Modifying user name:	trannguyen
#	Modification time:	Tue Feb  8 18:26:14 2022

@<TRIPOS>MOLECULE
CHEMBL1489
 22 23 0 0 0
SMALL
GASTEIGER

@<TRIPOS>ATOM
      1 C1*         3.1468   31.0802    9.2911 C.3     1  UNL1        0.2395
      2 O4*         4.0415   29.9548    9.3876 O.3     1  UNL1       -0.3308
      3 C4*         3.4753   29.0353   10.3368 C.3     1  UNL1        0.1757
      4 C3*         1.9659   29.2615   10.3351 C.3     1  UNL1        0.1713
      5 O3*         1.3390   28.9141   11.5707 O.3     1  UNL1       -0.3794
      6 C2*         1.8614   30.7536   10.0726 C.3     1  UNL1        0.1896
      7 O2*         1.8508   31.4635   11.3249 O.3     1  UNL1       -0.3779
      8 H3*         1.5360   27.9624   11.7015 H       1  UNL1        0.2105
      9 H2*         1.3730   30.8646   11.9402 H       1  UNL1        0.2106
     10 N           2.3655   32.1973    4.0117 N.pl3   1  UNL1       -0.3273
     11 C           2.5866   31.9436    5.3219 C.ar    1  UNL1        0.2191
     12 N           1.6139   31.2870    5.9967 N.ar    1  UNL1       -0.1932
     13 C           1.8287   31.0523    7.2402 C.ar    1  UNL1        0.1866
     14 N           2.9542   31.4259    7.8942 N.ar    1  UNL1       -0.2367
     15 C           3.9197   32.0809    7.1764 C.ar    1  UNL1        0.3554
     16 O           4.9924   32.4051    7.6845 O.2     1  UNL1       -0.2443
     17 N           3.6817   32.3483    5.8636 N.ar    1  UNL1       -0.1594
     18 H           1.3861   32.2345    3.7649 H       1  UNL1        0.1452
     19 H           2.9281   32.9588    3.6553 H       1  UNL1        0.1452
     20 C5*         3.8406   27.6013    9.9644 C.3     1  UNL1        0.1693
     21 O5*         2.6824   26.7715    9.9857 O.3     1  UNL1       -0.3794
     22 H5*         2.9677   25.8966    9.6629 H       1  UNL1        0.2105
@<TRIPOS>BOND
     1    10    11    1
     2    10    18    1
     3    10    19    1
     4    11    12   ar
     5    11    17   ar
     6    12    13   ar
     7    13    14   ar
     8    14    15   ar
     9     1     2    1
    10     1     6    1
    11     1    14    1
    12     2     3    1
    13     3    20    1
    14     3     4    1
    15    20    21    1
    16    21    22    1
    17     4     6    1
    18     4     5    1
    19     5     8    1
    20     6     7    1
    21     7     9    1
    22    15    16    2
    23    15    17   ar
#	Name:			CHEMBL1490
#	Creating user name:	trannguyen
#	Creation time:		Tue Feb  8 18:26:14 2022


#	Modifying user name:	trannguyen
#	Modification time:	Tue Feb  8 18:26:14 2022

@<TRIPOS>MOLECULE
CHEMBL1490
 23 25 0 0 0
SMALL
GASTEIGER

@<TRIPOS>ATOM
      1 O           0.9899   32.0945    7.9657 O.3     1  UNL1       -0.3826
      2 C           2.4100   31.8616    8.1562 C.3     1  UNL1        0.1082
      3 H           0.6490   31.4037    7.3761 H       1  UNL1        0.2107
      4 C           2.5597   30.5447    8.9553 C.ar    1  UNL1        0.0018
      5 C           3.8079   30.1075    9.4298 C.ar    1  UNL1       -0.0020
      6 C           3.9443   28.9452   10.2021 C.ar    1  UNL1       -0.0002
      7 C           2.8195   28.1809   10.5168 C.ar    1  UNL1       -0.0000
      8 C           1.5763   28.5887   10.0718 C.ar    1  UNL1       -0.0002
      9 C           1.4400   29.7497    9.2980 C.ar    1  UNL1       -0.0020
     10 C           3.0196   31.7937    6.6866 C.3     1  UNL1        0.0286
     11 C           2.0197   31.2952    5.6024 C.3     1  UNL1        0.0027
     12 C           1.3257   32.3793    4.7729 C.3     1  UNL1        0.0001
     13 C           2.3080   33.3884    4.2040 C.3     1  UNL1        0.0000
     14 C           3.1285   34.0214    5.3174 C.3     1  UNL1        0.0001
     15 C           3.8597   32.9774    6.1573 C.3     1  UNL1        0.0027
     16 C           2.8655   33.1093    8.9589 C.3     1  UNL1        0.0484
     17 C           2.1838   33.2420   10.3460 C.3     1  UNL1        0.0748
     18 N           1.5091   34.5244   10.6200 N.3     1  UNL1       -0.2726
     19 C           0.0653   34.4705   10.3736 C.3     1  UNL1        0.0721
     20 C          -0.6112   35.7529   10.8571 C.3     1  UNL1        0.0174
     21 C           0.0062   36.9795   10.1942 C.3     1  UNL1        0.0029
     22 C           1.5219   36.9810   10.3658 C.3     1  UNL1        0.0174
     23 C           2.1409   35.6516    9.9310 C.3     1  UNL1        0.0721
@<TRIPOS>BOND
     1     1     2    1
     2     1     3    1
     3     2    16    1
     4     2     4    1
     5     2    10    1
     6    16    17    1
     7    17    18    1
     8    18    19    1
     9    18    23    1
    10    19    20    1
    11    20    21    1
    12    21    22    1
    13    22    23    1
    14     4     5   ar
    15     4     9   ar
    16     5     6   ar
    17     6     7   ar
    18     7     8   ar
    19     8     9   ar
    20    10    11    1
    21    10    15    1
    22    11    12    1
    23    12    13    1
    24    13    14    1
    25    14    15    1
#	Name:			CHEMBL1491
#	Creating user name:	trannguyen
#	Creation time:		Tue Feb  8 18:26:14 2022


#	Modifying user name:	trannguyen
#	Modification time:	Tue Feb  8 18:26:14 2022

@<TRIPOS>MOLECULE
CHEMBL1491
 31 32 0 0 0
SMALL
GASTEIGER

@<TRIPOS>ATOM
      1 C           5.3817   32.8159    7.4278 C.2     1  UNL1        0.0731
      2 C           6.5786   32.7844    6.7921 C.2     1  UNL1        0.0581
      3 N           7.7440   32.7345    7.5406 N.pl3   1  UNL1       -0.3173
      4 C           7.8179   32.8039    8.9165 C.2     1  UNL1        0.0283
      5 C           9.2191   32.9052    9.4714 C.3     1  UNL1        0.0470
      6 C           6.6795   32.7857    9.6555 C.2     1  UNL1        0.0707
      7 C           5.3046   32.6871    8.9585 C.3     1  UNL1        0.0821
      8 H           8.5900   32.9119    6.9953 H       1  UNL1        0.1517
      9 C           4.4507   31.4828    9.4210 C.ar    1  UNL1       -0.0033
     10 C           5.1242   30.2523    9.6100 C.ar    1  UNL1       -0.0028
     11 C           4.4564   29.0862    9.9876 C.ar    1  UNL1       -0.0002
     12 C           3.0990   29.1293   10.2614 C.ar    1  UNL1        0.0008
     13 C           2.4133   30.3338   10.1297 C.ar    1  UNL1        0.0111
     14 C           3.0684   31.4951    9.6867 C.ar    1  UNL1        0.0543
     15 CL          2.0596   32.8855    9.5109 Cl      1  UNL1       -0.0826
     16 C           4.1031   32.8714    6.6683 C.2     1  UNL1        0.3388
     17 O           3.4530   33.8721    6.4706 O.2     1  UNL1       -0.2452
     18 O           3.7779   31.6208    6.2282 O.3     1  UNL1       -0.4456
     19 C           2.6358   31.3646    4.1188 C.3     1  UNL1        0.0513
     20 C           2.4849   31.5161    5.6190 C.3     1  UNL1        0.2089
     21 C           6.6607   33.0490   11.1306 C.2     1  UNL1        0.3388
     22 O           6.9930   32.2497   11.9924 O.2     1  UNL1       -0.2452
     23 O           6.0386   34.2196   11.4048 O.3     1  UNL1       -0.4415
     24 C           6.7923   35.3960   11.1196 C.3     1  UNL1        0.2559
     25 C           6.7994   32.7469    5.2855 C.3     1  UNL1        0.1829
     26 O           6.8823   31.3713    4.8605 O.3     1  UNL1       -0.3462
     27 C           6.2433   31.2080    3.5862 C.3     1  UNL1        0.1595
     28 C           7.2114   31.5872    2.4602 C.3     1  UNL1        0.0977
     29 N           7.4186   30.4769    1.5269 N.3     1  UNL1       -0.3191
     30 H           7.8239   29.7014    2.0529 H       1  UNL1        0.1189
     31 H           8.1082   30.7458    0.8277 H       1  UNL1        0.1189
@<TRIPOS>BOND
     1    19    20    1
     2    20    18    1
     3    18    16    1
     4    16    17    2
     5    16     1    1
     6     1     2    2
     7     1     7    1
     8     2    25    1
     9     2     3    1
    10    25    26    1
    11    26    27    1
    12    27    28    1
    13    28    29    1
    14    29    30    1
    15    29    31    1
    16     3     4    1
    17     3     8    1
    18     4     5    1
    19     4     6    2
    20     6    21    1
    21     6     7    1
    22    21    22    2
    23    21    23    1
    24    23    24    1
    25     7     9    1
    26     9    10   ar
    27     9    14   ar
    28    10    11   ar
    29    11    12   ar
    30    12    13   ar
    31    13    14   ar
    32    14    15    1
#	Name:			CHEMBL1493
#	Creating user name:	trannguyen
#	Creation time:		Tue Feb  8 18:26:14 2022


#	Modifying user name:	trannguyen
#	Modification time:	Tue Feb  8 18:26:14 2022

@<TRIPOS>MOLECULE
CHEMBL1493
 29 32 0 0 0
SMALL
GASTEIGER

@<TRIPOS>ATOM
      1 C           2.7049   30.8856    9.6789 C.3     1  UNL1        0.0376
      2 C           3.1901   31.4775    8.3915 C.ar    1  UNL1        0.0516
      3 C           4.3746   32.0885    8.1935 C.ar    1  UNL1        0.1442
      4 O           4.8031   32.6121    6.9844 O.2     1  UNL1       -0.4534
      5 C           4.0448   32.4117    5.8551 C.ar    1  UNL1        0.1544
      6 C           4.5253   32.8164    4.6044 C.ar    1  UNL1        0.1102
      7 C           3.7308   32.6105    3.4541 C.ar    1  UNL1        0.0095
      8 C           2.4503   32.0549    3.5545 C.ar    1  UNL1        0.0005
      9 C           1.9726   31.6704    4.7989 C.ar    1  UNL1        0.0062
     10 C           2.7780   31.8313    5.9338 C.ar    1  UNL1        0.0734
     11 C           2.2746   31.3707    7.2319 C.ar    1  UNL1        0.1975
     12 O           1.1481   30.8999    7.3274 O.2     1  UNL1       -0.2867
     13 C           5.3591   32.2689    9.2776 C.ar    1  UNL1        0.0343
     14 C           5.5756   33.5348    9.8391 C.ar    1  UNL1        0.0030
     15 C           6.5155   33.7080   10.8609 C.ar    1  UNL1        0.0001
     16 C           7.2518   32.6202   11.3262 C.ar    1  UNL1        0.0000
     17 C           7.0404   31.3558   10.7793 C.ar    1  UNL1        0.0001
     18 C           6.0956   31.1792    9.7625 C.ar    1  UNL1        0.0030
     19 C           5.8260   33.5311    4.3969 C.2     1  UNL1        0.3442
     20 O           5.9034   34.7395    4.3762 O.2     1  UNL1       -0.2448
     21 O           6.8387   32.6513    4.1777 O.3     1  UNL1       -0.4438
     22 C           8.1856   33.1767    4.1803 C.3     1  UNL1        0.2260
     23 C           8.9652   32.6177    5.3916 C.3     1  UNL1        0.1202
     24 N           8.1567   32.3963    6.6151 N.3     1  UNL1       -0.2696
     25 C           8.2595   31.0091    7.1120 C.3     1  UNL1        0.0722
     26 C           9.6394   30.6550    7.6805 C.3     1  UNL1        0.0174
     27 C          10.0898   31.6583    8.7412 C.3     1  UNL1        0.0029
     28 C           9.8952   33.0986    8.2739 C.3     1  UNL1        0.0174
     29 C           8.4871   33.3148    7.7155 C.3     1  UNL1        0.0722
@<TRIPOS>BOND
     1     1     2    1
     2     2     3   ar
     3     2    11   ar
     4     3    13    1
     5     3     4   ar
     6    13    14   ar
     7    13    18   ar
     8    14    15   ar
     9    15    16   ar
    10    16    17   ar
    11    17    18   ar
    12     4     5   ar
    13     5     6   ar
    14     5    10   ar
    15     6    19    1
    16     6     7   ar
    17    19    20    2
    18    19    21    1
    19    21    22    1
    20    22    23    1
    21    23    24    1
    22    24    25    1
    23    24    29    1
    24    25    26    1
    25    26    27    1
    26    27    28    1
    27    28    29    1
    28     7     8   ar
    29     8     9   ar
    30     9    10   ar
    31    10    11   ar
    32    11    12    2
#	Name:			CHEMBL149701
#	Creating user name:	trannguyen
#	Creation time:		Tue Feb  8 18:26:14 2022


#	Modifying user name:	trannguyen
#	Modification time:	Tue Feb  8 18:26:14 2022

@<TRIPOS>MOLECULE
CHEMBL149701
 29 29 0 0 0
SMALL
GASTEIGER

@<TRIPOS>ATOM
      1 C           9.1299   32.8907   10.9071 C.3     1  UNL1        0.0047
      2 C           8.8239   32.5422    9.4501 C.3     1  UNL1        0.0218
      3 C           9.8610   31.6093    8.8830 C.2     1  UNL1       -0.0310
      4 C           9.5984   30.6986    7.9364 C.2     1  UNL1       -0.0306
      5 C           8.2474   30.4999    7.3219 C.3     1  UNL1        0.0294
      6 C           7.1856   31.5394    7.7523 C.3     1  UNL1        0.0485
      7 C           7.3626   32.0579    9.2149 C.3     1  UNL1        0.0080
      8 C           7.2089   32.7323    6.7630 C.3     1  UNL1        0.2087
      9 O           6.4275   32.4543    5.5907 O.3     1  UNL1       -0.4485
     10 C           5.0988   32.7437    5.6593 C.2     1  UNL1        0.3159
     11 O           4.5830   33.4199    6.5350 O.2     1  UNL1       -0.2501
     12 C           4.3517   32.1510    4.4609 C.3     1  UNL1        0.0896
     13 C           5.2791   31.1675    3.7309 C.3     1  UNL1        0.0111
     14 C           3.1282   31.4020    4.9993 C.3     1  UNL1        0.0111
     15 C           3.9098   33.2542    3.4833 C.3     1  UNL1        0.0111
     16 C           6.7618   31.1249   10.3167 C.3     1  UNL1        0.0029
     17 C           5.7573   30.0587    9.8694 C.3     1  UNL1        0.0293
     18 C           4.2825   30.3393   10.2240 C.3     1  UNL1        0.1130
     19 O           3.8859   31.5571    9.5724 O.3     1  UNL1       -0.3844
     20 H           4.4790   32.2670    9.8807 H       1  UNL1        0.2103
     21 C           3.2929   29.2460    9.7821 C.3     1  UNL1        0.0590
     22 C           1.9672   29.2906   10.5768 C.3     1  UNL1        0.1241
     23 O           1.8729   30.4586   11.3965 O.3     1  UNL1       -0.3838
     24 H           2.7865   30.6904   11.6760 H       1  UNL1        0.2104
     25 C           0.7321   29.2967    9.6873 C.3     1  UNL1        0.1385
     26 C           0.6056   30.5402    8.8521 C.2     1  UNL1        0.3163
     27 O           0.9394   30.6042    7.6650 O.2     1  UNL1       -0.2502
     28 O           0.1093   31.6010    9.5069 O.3     1  UNL1       -0.4801
     29 H          -0.0506   31.4504   10.4656 H       1  UNL1        0.2951
@<TRIPOS>BOND
     1     1     2    1
     2     2     3    1
     3     2     7    1
     4     3     4    2
     5     4     5    1
     6     5     6    1
     7     6     8    1
     8     6     7    1
     9     8     9    1
    10     9    10    1
    11    10    11    2
    12    10    12    1
    13    12    13    1
    14    12    14    1
    15    12    15    1
    16     7    16    1
    17    16    17    1
    18    17    18    1
    19    18    19    1
    20    18    21    1
    21    19    20    1
    22    21    22    1
    23    22    23    1
    24    22    25    1
    25    23    24    1
    26    25    26    1
    27    26    27    2
    28    26    28    1
    29    28    29    1
#	Name:			CHEMBL149702
#	Creating user name:	trannguyen
#	Creation time:		Tue Feb  8 18:26:14 2022


#	Modifying user name:	trannguyen
#	Modification time:	Tue Feb  8 18:26:14 2022

@<TRIPOS>MOLECULE
CHEMBL149702
 32 32 0 0 0
SMALL
GASTEIGER

@<TRIPOS>ATOM
      1 C           2.9819   29.7726    9.8386 C.3     1  UNL1        0.0036
      2 C           4.3218   29.2985   10.4417 C.3     1  UNL1        0.0001
      3 C           5.5462   29.7380    9.6920 C.3     1  UNL1        0.0000
      4 C           5.5666   31.2419    9.6713 C.3     1  UNL1        0.0001
      5 C           4.4098   31.7917    8.8404 C.3     1  UNL1        0.0037
      6 C           2.9860   31.2481    9.2667 C.3     1  UNL1        0.0439
      7 C           1.9226   29.5670   10.9652 C.3     1  UNL1        0.0001
      8 C          -0.3187   29.0362    9.8761 C.3     1  UNL1        0.0000
      9 C           0.8798   28.4800   10.6266 C.3     1  UNL1        0.0000
     10 C           4.4766   33.3428    8.8749 C.3     1  UNL1        0.0026
     11 C           3.6319   33.9754    9.9969 C.3     1  UNL1        0.0293
     12 C           3.0140   35.3255    9.6126 C.3     1  UNL1        0.1130
     13 O           2.8195   35.3619    8.1982 O.3     1  UNL1       -0.3844
     14 H           3.6495   35.0879    7.7679 H       1  UNL1        0.2103
     15 C           1.6613   35.5776   10.2797 C.3     1  UNL1        0.0590
     16 C           1.0218   36.9175    9.9107 C.3     1  UNL1        0.1241
     17 O          -0.4111   36.7455    9.8789 O.3     1  UNL1       -0.3838
     18 H          -0.6028   36.0217    9.2505 H       1  UNL1        0.2104
     19 C           1.3149   38.0342   10.9127 C.3     1  UNL1        0.1385
     20 C           1.1560   39.4124   10.2956 C.2     1  UNL1        0.3163
     21 O           1.6492   40.4066   10.7692 O.2     1  UNL1       -0.2502
     22 O           0.3511   39.4520    9.2037 O.3     1  UNL1       -0.4801
     23 H          -0.0469   38.5714    9.0141 H       1  UNL1        0.2951
     24 C           2.0624   31.4015    8.0038 C.3     1  UNL1        0.2083
     25 O           2.7019   31.1423    6.7322 O.3     1  UNL1       -0.4485
     26 C           2.2190   31.8794    5.6805 C.2     1  UNL1        0.3159
     27 O           1.0349   32.1836    5.5528 O.2     1  UNL1       -0.2501
     28 C           3.2875   32.3478    4.6671 C.3     1  UNL1        0.0896
     29 C           3.7097   31.0910    3.8712 C.3     1  UNL1        0.0111
     30 C           2.6413   33.3540    3.6966 C.3     1  UNL1        0.0111
     31 C           4.5273   32.9703    5.3507 C.3     1  UNL1        0.0106
     32 C           5.8042   32.1327    5.2466 C.3     1  UNL1        0.0006
@<TRIPOS>BOND
     1     8     9    1
     2     9     7    1
     3     1     2    1
     4     1     6    1
     5     1     7    1
     6     2     3    1
     7     3     4    1
     8     4     5    1
     9     5    10    1
    10     5     6    1
    11    10    11    1
    12    11    12    1
    13    12    13    1
    14    12    15    1
    15    13    14    1
    16    15    16    1
    17    16    17    1
    18    16    19    1
    19    17    18    1
    20    19    20    1
    21    20    21    2
    22    20    22    1
    23    22    23    1
    24     6    24    1
    25    24    25    1
    26    25    26    1
    27    26    27    2
    28    26    28    1
    29    28    29    1
    30    28    30    1
    31    28    31    1
    32    31    32    1
#	Name:			CHEMBL14
#	Creating user name:	trannguyen
#	Creation time:		Tue Feb  8 18:26:14 2022


#	Modifying user name:	trannguyen
#	Modification time:	Tue Feb  8 18:26:14 2022

@<TRIPOS>MOLECULE
CHEMBL14
 12 11 0 0 0
SMALL
GASTEIGER

@<TRIPOS>ATOM
      1 C           3.1812   29.2635    9.9174 C.3     1  UNL1        0.2705
      2 C           3.5305   30.7207    9.5767 C.3     1  UNL1        0.1576
      3 C           2.9198   32.5544    7.9141 C.3     1  UNL1        0.1711
      4 N           2.3963   31.5456    8.9404 N.4     1  UNL1        0.3135
      5 C           1.6803   32.3365   10.0247 C.3     1  UNL1        0.1711
      6 C           1.3799   30.6460    8.2332 C.3     1  UNL1        0.1711
      7 O           2.5117   29.1377   11.1777 O.3     1  UNL1       -0.4283
      8 C           1.7188   28.0568   11.3002 C.2     1  UNL1        0.3987
      9 N           0.4569   28.3717   10.9632 N.am    1  UNL1       -0.2950
     10 O           2.0796   26.9514   11.6858 O.2     1  UNL1       -0.2267
     11 H           0.2386   29.3442   10.7848 H       1  UNL1        0.1482
     12 H          -0.2800   27.7603   11.2849 H       1  UNL1        0.1482
@<TRIPOS>UNITY_ATOM_ATTR
4 1
charge 1
@<TRIPOS>BOND
     1     3     4    1
     2     4     5    1
     3     4     6    1
     4     4     2    1
     5     2     1    1
     6     1     7    1
     7     7     8    1
     8     8     9   am
     9     8    10    2
    10     9    11    1
    11     9    12    1
#	Name:			CHEMBL1501
#	Creating user name:	trannguyen
#	Creation time:		Tue Feb  8 18:26:14 2022


#	Modifying user name:	trannguyen
#	Modification time:	Tue Feb  8 18:26:14 2022

@<TRIPOS>MOLECULE
CHEMBL1501
 36 40 0 0 0
SMALL
GASTEIGER

@<TRIPOS>ATOM
      1 C           7.9617   36.0638   -8.0659 C.3     1  UNL1        0.1740
      2 O           8.7243   35.2738   -7.1836 O.3     1  UNL1       -0.3296
      3 C           8.3520   35.6803   -5.8676 C.3     1  UNL1        0.1877
      4 C           9.5295   35.4890   -4.9184 C.3     1  UNL1        0.0612
      5 C           7.1646   34.8707   -5.3462 C.3     1  UNL1        0.0612
      6 O           7.9793   37.0609   -5.9438 O.3     1  UNL1       -0.3339
      7 C           7.5052   37.2723   -7.2900 C.3     1  UNL1        0.1491
      8 C           7.9683   38.8017   -8.4559 C.3     1  UNL1        0.0327
      9 C           7.0902   38.1331   -9.2729 C.3     1  UNL1        0.0080
     10 C           6.0605   38.9914   -8.0313 C.3     1  UNL1        0.0363
     11 C           5.0276   40.0097   -8.4915 C.3     1  UNL1        0.0423
     12 C           4.1306   40.3446   -7.2767 C.3     1  UNL1        0.1799
     13 F           3.1761   41.2169   -7.7212 F       1  UNL1       -0.2328
     14 C           4.8644   40.9081   -6.0619 C.2     1  UNL1       -0.0034
     15 C           4.4806   42.1122   -5.5910 C.2     1  UNL1        0.0365
     16 C           5.1994   42.8180   -4.5148 C.2     1  UNL1        0.1949
     17 O           4.8016   43.8884   -4.0733 O.2     1  UNL1       -0.2866
     18 C           6.4294   42.1893   -4.0081 C.2     1  UNL1        0.0378
     19 C           6.8155   40.9803   -4.4359 C.2     1  UNL1       -0.0170
     20 C           6.0838   40.1238   -5.4685 C.3     1  UNL1        0.0662
     21 C           5.5891   38.8711   -4.7334 C.3     1  UNL1        0.0113
     22 C           7.0366   39.7872   -6.6577 C.3     1  UNL1        0.1646
     23 F           7.2557   41.1111   -7.1734 F       1  UNL1       -0.2369
     24 C           8.8095   39.2871   -6.4207 C.3     1  UNL1        0.1409
     25 O           9.1412   39.0339   -5.0545 O.3     1  UNL1       -0.3817
     26 C           9.7045   38.0479   -7.4927 C.3     1  UNL1        0.0348
     27 C           8.6202   37.1530   -8.8122 C.3     1  UNL1        0.0343
     28 C           9.4730   36.7432  -10.0051 C.3     1  UNL1        0.0029
     29 H           8.7755   38.1454   -4.8806 H       1  UNL1        0.2104
     30 C           6.8460   35.2816   -8.8141 C.2     1  UNL1        0.2210
     31 O           5.6468   35.5184   -8.6435 O.2     1  UNL1       -0.2896
     32 C           7.2806   34.1371   -9.7291 C.3     1  UNL1        0.2745
     33 O           6.5141   32.9456   -9.5671 O.3     1  UNL1       -0.4402
     34 C           7.9906   31.2733   -8.7979 C.3     1  UNL1        0.1212
     35 C           6.8434   32.1926   -8.4774 C.2     1  UNL1        0.3180
     36 O           6.2524   32.1985   -7.4186 O.2     1  UNL1       -0.2501
@<TRIPOS>BOND
     1    34    35    1
     2    35    36    2
     3    35    33    1
     4    33    32    1
     5    32    30    1
     6    30    31    2
     7     1     2    1
     8     1     7    1
     9     1    27    1
    10     1    30    1
    11     2     3    1
    12     3     6    1
    13     3     4    1
    14     3     5    1
    15     6     7    1
    16     7     8    1
    17     8     9    1
    18     9    10    1
    19     9    27    1
    20    10    11    1
    21    10    22    1
    22    11    12    1
    23    12    14    1
    24    12    13    1
    25    14    15    2
    26    14    20    1
    27    15    16    1
    28    16    18    1
    29    16    17    2
    30    18    19    2
    31    19    20    1
    32    20    22    1
    33    20    21    1
    34    22    24    1
    35    22    23    1
    36    24    26    1
    37    24    25    1
    38    25    29    1
    39    26    27    1
    40    27    28    1
#	Name:			CHEMBL1502
#	Creating user name:	trannguyen
#	Creation time:		Tue Feb  8 18:26:14 2022


#	Modifying user name:	trannguyen
#	Modification time:	Tue Feb  8 18:26:14 2022

@<TRIPOS>MOLECULE
CHEMBL1502
 27 29 0 0 0
SMALL
GASTEIGER

@<TRIPOS>ATOM
      1 C           3.5840   31.6281    4.9468 C.ar    1  UNL1        0.1864
      2 N           4.1391   31.0864    3.8856 N.ar    1  UNL1       -0.2200
      3 C           5.4089   31.6221    3.8340 C.ar    1  UNL1        0.1020
      4 C           6.4182   31.4531    2.8751 C.ar    1  UNL1        0.0577
      5 C           7.6354   32.1230    3.0423 C.ar    1  UNL1        0.1459
      6 C           7.8768   32.8687    4.2012 C.ar    1  UNL1        0.0387
      7 C           6.8740   33.0727    5.1627 C.ar    1  UNL1        0.0217
      8 C           5.6450   32.4554    4.9240 C.ar    1  UNL1        0.0762
      9 N           4.4448   32.4789    5.5866 N.ar    1  UNL1       -0.3313
     10 H           4.2051   33.0140    6.4110 H       1  UNL1        0.1679
     11 S           1.9464   31.3680    5.4897 S.3     1  UNL1        0.0397
     12 O           1.0624   32.2179    4.4973 O.3     1  UNL1       -0.1532
     13 C           2.0813   32.2332    7.0836 C.3     1  UNL1        0.1343
     14 C           2.9062   29.9111   10.0050 C.ar    1  UNL1        0.1752
     15 C           1.6142   29.4354   10.2538 C.ar    1  UNL1        0.0607
     16 C           0.5721   29.8887    9.4724 C.ar    1  UNL1        0.1018
     17 N           0.7246   30.7715    8.4679 N.ar    1  UNL1       -0.2440
     18 C           1.9679   31.2791    8.2552 C.ar    1  UNL1        0.1087
     19 C           3.0938   30.8984    9.0178 C.ar    1  UNL1        0.1867
     20 C           4.6349   28.2857   10.1898 C.3     1  UNL1        0.2526
     21 O           3.9826   29.4436   10.7132 O.3     1  UNL1       -0.4683
     22 O           4.2662   31.5193    8.6778 O.3     1  UNL1       -0.4671
     23 C           4.6921   32.6663    9.4028 C.3     1  UNL1        0.2527
     24 O           8.6538   32.1171    2.1250 O.3     1  UNL1       -0.4236
     25 C           8.2642   32.1509    0.7534 C.3     1  UNL1        0.5087
     26 F           7.6135   33.3122    0.5005 F       1  UNL1       -0.1550
     27 F           9.3443   32.0831   -0.0620 F       1  UNL1       -0.1550
@<TRIPOS>BOND
     1    20    21    1
     2    21    14    1
     3    14    15   ar
     4    14    19   ar
     5    15    16   ar
     6    16    17   ar
     7    17    18   ar
     8    18    13    1
     9    18    19   ar
    10    13    11    1
    11    11    12    1
    12    11     1    1
    13     1     2   ar
    14     1     9   ar
    15     2     3   ar
    16     3     4   ar
    17     3     8   ar
    18     4     5   ar
    19     5    24    1
    20     5     6   ar
    21    24    25    1
    22    25    26    1
    23    25    27    1
    24     6     7   ar
    25     7     8   ar
    26     8     9   ar
    27     9    10    1
    28    19    22    1
    29    22    23    1
#	Name:			CHEMBL1503
#	Creating user name:	trannguyen
#	Creation time:		Tue Feb  8 18:26:14 2022


#	Modifying user name:	trannguyen
#	Modification time:	Tue Feb  8 18:26:14 2022

@<TRIPOS>MOLECULE
CHEMBL1503
 25 27 0 0 0
SMALL
GASTEIGER

@<TRIPOS>ATOM
      1 S           7.8536   31.7407    1.9717 S.3     1  UNL1        0.0395
      2 O           7.4404   30.7162    0.8492 O.3     1  UNL1       -0.1532
      3 C           2.4672   32.2210    5.0953 C.ar    1  UNL1        0.1403
      4 C           2.5365   33.5600    4.6970 C.ar    1  UNL1        0.0385
      5 C           3.6280   34.0611    3.9811 C.ar    1  UNL1        0.0217
      6 C           4.6392   33.1534    3.6641 C.ar    1  UNL1        0.0762
      7 N           5.8172   33.2906    2.9707 N.ar    1  UNL1       -0.3313
      8 H           6.1713   34.1298    2.5456 H       1  UNL1        0.1679
      9 C           6.3999   32.0489    2.8842 C.ar    1  UNL1        0.1864
     10 N           5.6963   31.1469    3.5382 N.ar    1  UNL1       -0.2200
     11 C           4.5979   31.8138    4.0222 C.ar    1  UNL1        0.1020
     12 C           3.4973   31.3306    4.7556 C.ar    1  UNL1        0.0575
     13 C           1.6161   31.4406    7.1577 C.3     1  UNL1        0.2525
     14 O           1.4029   31.6734    5.7676 O.3     1  UNL1       -0.4714
     15 C           8.0992   33.4058    1.3101 C.3     1  UNL1        0.1308
     16 C           8.6330   33.4207   -0.1029 C.ar    1  UNL1        0.0708
     17 N           9.7638   32.6937   -0.2836 N.ar    1  UNL1       -0.2477
     18 C          10.3660   32.7437   -1.4906 C.ar    1  UNL1        0.0972
     19 C           9.9153   33.4737   -2.5850 C.ar    1  UNL1        0.0309
     20 C          10.7585   33.4528   -3.8240 C.3     1  UNL1        0.0358
     21 C           8.7356   34.2065   -2.3987 C.ar    1  UNL1        0.1333
     22 C           8.0713   34.1791   -1.1421 C.ar    1  UNL1        0.0263
     23 C           6.8411   35.0244   -0.9322 C.3     1  UNL1        0.0355
     24 O           8.1861   35.0796   -3.3069 O.3     1  UNL1       -0.4720
     25 C           7.5059   34.5501   -4.4352 C.3     1  UNL1        0.2524
@<TRIPOS>BOND
     1    13    14    1
     2    14     3    1
     3     3     4   ar
     4     3    12   ar
     5     4     5   ar
     6     5     6   ar
     7     6     7   ar
     8     6    11   ar
     9     7     8    1
    10     7     9   ar
    11     9     1    1
    12     9    10   ar
    13     1     2    1
    14     1    15    1
    15    15    16    1
    16    16    17   ar
    17    16    22   ar
    18    17    18   ar
    19    18    19   ar
    20    19    20    1
    21    19    21   ar
    22    21    24    1
    23    21    22   ar
    24    24    25    1
    25    22    23    1
    26    10    11   ar
    27    11    12   ar
#	Name:			CHEMBL1504
#	Creating user name:	trannguyen
#	Creation time:		Tue Feb  8 18:26:14 2022


#	Modifying user name:	trannguyen
#	Modification time:	Tue Feb  8 18:26:14 2022

@<TRIPOS>MOLECULE
CHEMBL1504
 33 37 0 0 0
SMALL
GASTEIGER

@<TRIPOS>ATOM
      1 C           5.2518   32.7438    6.1426 C.3     1  UNL1        0.0612
      2 C           6.6195   32.7321    6.8210 C.3     1  UNL1        0.1877
      3 C           7.6504   33.3742    5.8972 C.3     1  UNL1        0.0612
      4 O           7.0046   31.3816    7.0806 O.3     1  UNL1       -0.3339
      5 C           7.1887   31.2780    8.4908 C.3     1  UNL1        0.1491
      6 C           8.6699   31.4732    8.8605 C.3     1  UNL1        0.0327
      7 C           8.7554   32.6716    9.8427 C.3     1  UNL1        0.0079
      8 C           9.4263   33.9275    9.2112 C.3     1  UNL1        0.0335
      9 C          10.9247   33.6395    8.9684 C.3     1  UNL1        0.0071
     10 C          11.6618   34.8436    8.4013 C.3     1  UNL1        0.0226
     11 C          11.5066   36.0086    9.3375 C.2     1  UNL1       -0.0354
     12 C          12.5890   36.5710    9.9052 C.2     1  UNL1        0.0339
     13 C          12.4747   37.6713   10.8839 C.2     1  UNL1        0.1948
     14 O          13.4667   38.1965   11.3704 O.2     1  UNL1       -0.2866
     15 C          11.1153   38.1007   11.2545 C.2     1  UNL1        0.0378
     16 C          10.0335   37.5478   10.6851 C.2     1  UNL1       -0.0171
     17 C          10.0607   36.4471    9.6213 C.3     1  UNL1        0.0638
     18 C           9.5100   37.0930    8.3297 C.3     1  UNL1        0.0112
     19 C           9.2286   35.1837   10.1039 C.3     1  UNL1        0.1644
     20 F           9.7194   34.8398   11.3497 F       1  UNL1       -0.2369
     21 C           7.7126   35.4460   10.2837 C.3     1  UNL1        0.1409
     22 O           7.0575   35.8220    9.0775 O.3     1  UNL1       -0.3817
     23 C           7.0024   34.2549   10.9309 C.3     1  UNL1        0.0348
     24 C           7.2963   32.8497   10.3520 C.3     1  UNL1        0.0343
     25 C           7.0739   31.8442   11.5176 C.3     1  UNL1        0.0029
     26 C           6.4497   32.4543    9.1006 C.3     1  UNL1        0.1727
     27 O           6.5662   33.4535    8.0650 O.3     1  UNL1       -0.3297
     28 H           6.7125   35.0193    8.6341 H       1  UNL1        0.2104
     29 C           4.9522   32.2376    9.4192 C.2     1  UNL1        0.2065
     30 O           4.2297   33.1803    9.7651 O.2     1  UNL1       -0.2909
     31 C           4.3402   30.8511    9.2739 C.3     1  UNL1        0.2045
     32 O           4.0371   30.2764   10.5281 O.3     1  UNL1       -0.3749
     33 H           4.8875   30.1192   10.9802 H       1  UNL1        0.2110
@<TRIPOS>BOND
     1     1     2    1
     2     2     4    1
     3     2    27    1
     4     2     3    1
     5     4     5    1
     6     5     6    1
     7     5    26    1
     8     6     7    1
     9     7     8    1
    10     7    24    1
    11     8     9    1
    12     8    19    1
    13     9    10    1
    14    10    11    1
    15    11    12    2
    16    11    17    1
    17    12    13    1
    18    13    15    1
    19    13    14    2
    20    15    16    2
    21    16    17    1
    22    17    19    1
    23    17    18    1
    24    19    21    1
    25    19    20    1
    26    21    23    1
    27    21    22    1
    28    22    28    1
    29    23    24    1
    30    24    26    1
    31    24    25    1
    32    26    27    1
    33    26    29    1
    34    29    30    2
    35    29    31    1
    36    31    32    1
    37    32    33    1
#	Name:			CHEMBL1512
#	Creating user name:	trannguyen
#	Creation time:		Tue Feb  8 18:26:14 2022


#	Modifying user name:	trannguyen
#	Modification time:	Tue Feb  8 18:26:14 2022

@<TRIPOS>MOLECULE
CHEMBL1512
 33 37 0 0 0
SMALL
GASTEIGER

@<TRIPOS>ATOM
      1 C           0.6008   32.8696   10.0692 C.3     1  UNL1        0.0612
      2 C           1.7155   32.0833    9.3885 C.3     1  UNL1        0.1877
      3 C           1.3669   30.5973    9.3767 C.3     1  UNL1        0.0612
      4 O           1.8465   32.5461    8.0456 O.3     1  UNL1       -0.3339
      5 C           3.2017   32.9223    7.8722 C.3     1  UNL1        0.1491
      6 C           3.9863   31.8809    7.0922 C.3     1  UNL1        0.0326
      7 C           5.4280   32.0744    7.5830 C.3     1  UNL1        0.0055
      8 C           6.1362   33.2882    6.9188 C.3     1  UNL1        0.0062
      9 C           6.3182   33.1491    5.3948 C.3     1  UNL1        0.0397
     10 C           7.4471   32.2066    5.0070 C.3     1  UNL1        0.1797
     11 F           7.1383   30.9433    5.3976 F       1  UNL1       -0.2328
     12 C           8.7337   32.6633    5.6367 C.2     1  UNL1       -0.0059
     13 C           9.7711   32.9961    4.8468 C.2     1  UNL1        0.0364
     14 C          11.0172   33.5692    5.3896 C.2     1  UNL1        0.1949
     15 O          11.9623   33.8366    4.6637 O.2     1  UNL1       -0.2866
     16 C          11.0535   33.8392    6.8379 C.2     1  UNL1        0.0377
     17 C          10.0238   33.5089    7.6289 C.2     1  UNL1       -0.0196
     18 C           8.7399   32.8096    7.1666 C.3     1  UNL1        0.0386
     19 C           8.8224   31.4101    7.8050 C.3     1  UNL1        0.0086
     20 C           7.4881   33.6801    7.5878 C.3     1  UNL1        0.0343
     21 C           7.2573   33.9119    9.0955 C.3     1  UNL1        0.1111
     22 O           6.5229   35.1318    9.2306 O.3     1  UNL1       -0.3844
     23 C           6.4928   32.8054    9.8173 C.3     1  UNL1        0.0320
     24 C           5.2345   32.2197    9.1247 C.3     1  UNL1        0.0341
     25 C           5.0959   30.7931    9.7467 C.3     1  UNL1        0.0029
     26 C           3.8506   33.0058    9.2551 C.3     1  UNL1        0.1727
     27 O           2.9364   32.2816   10.1052 O.3     1  UNL1       -0.3297
     28 H           6.4406   35.3064   10.1911 H       1  UNL1        0.2103
     29 C           3.9192   34.4350    9.8465 C.2     1  UNL1        0.2065
     30 O           4.0297   35.4397    9.1284 O.2     1  UNL1       -0.2909
     31 C           3.8545   34.6173   11.3658 C.3     1  UNL1        0.2045
     32 O           5.0833   35.0659   11.9198 O.3     1  UNL1       -0.3749
     33 H           5.5077   35.6131   11.2315 H       1  UNL1        0.2110
@<TRIPOS>BOND
     1     1     2    1
     2     2     3    1
     3     2     4    1
     4     2    27    1
     5     4     5    1
     6     5     6    1
     7     5    26    1
     8     6     7    1
     9     7     8    1
    10     7    24    1
    11     8     9    1
    12     8    20    1
    13     9    10    1
    14    10    11    1
    15    10    12    1
    16    12    13    2
    17    12    18    1
    18    13    14    1
    19    14    15    2
    20    14    16    1
    21    16    17    2
    22    17    18    1
    23    18    19    1
    24    18    20    1
    25    20    21    1
    26    21    22    1
    27    21    23    1
    28    22    28    1
    29    23    24    1
    30    24    25    1
    31    24    26    1
    32    26    29    1
    33    26    27    1
    34    29    30    2
    35    29    31    1
    36    31    32    1
    37    32    33    1
#	Name:			CHEMBL1513
#	Creating user name:	trannguyen
#	Creation time:		Tue Feb  8 18:26:14 2022


#	Modifying user name:	trannguyen
#	Modification time:	Tue Feb  8 18:26:14 2022

@<TRIPOS>MOLECULE
CHEMBL1513
 33 37 0 0 0
SMALL
GASTEIGER

@<TRIPOS>ATOM
      1 C           6.7648   32.9418    8.0965 C.ar    1  UNL1        0.0248
      2 C           7.0653   32.1123    9.1713 C.ar    1  UNL1       -0.0003
      3 C           6.0757   31.2877    9.7299 C.ar    1  UNL1       -0.0002
      4 C           4.8181   31.0920    9.1421 C.ar    1  UNL1        0.0001
      5 C           4.5504   31.9299    8.0383 C.ar    1  UNL1       -0.0002
      6 C           5.4843   32.8559    7.5468 C.ar    1  UNL1       -0.0003
      7 C           3.7836   30.1134    9.6471 C.ar    1  UNL1        0.0031
      8 C           4.2251   28.7673    9.8281 C.ar    1  UNL1        0.0001
      9 C           3.4320   27.7516   10.3669 C.ar    1  UNL1        0.0000
     10 C           2.1246   28.0228   10.7077 C.ar    1  UNL1        0.0001
     11 C           1.6269   29.3106   10.5133 C.ar    1  UNL1        0.0032
     12 C           2.4241   30.3813   10.0090 C.ar    1  UNL1        0.0393
     13 C           1.7366   31.6884    9.9679 C.ar    1  UNL1        0.2055
     14 N           2.1768   32.7825   10.6999 N.ar    1  UNL1       -0.1080
     15 N           1.3529   33.7905   10.4471 N.ar    1  UNL1       -0.0485
     16 N           0.4658   33.2818    9.5934 N.ar    1  UNL1       -0.1761
     17 H          -0.3164   33.8215    9.2334 H       1  UNL1        0.2143
     18 N           0.6653   32.0169    9.2316 N.ar    1  UNL1       -0.1331
     19 C           7.7714   33.9509    7.5948 C.3     1  UNL1        0.2369
     20 C           9.4086   32.9139    5.9680 C.2     1  UNL1        0.3015
     21 N           9.6396   32.7372    4.7011 N.2     1  UNL1       -0.0666
     22 C           8.5447   33.4540    4.0083 C.3     1  UNL1        0.2640
     23 C           7.6548   32.5032    3.2196 C.3     1  UNL1        0.0606
     24 C           7.0407   33.4192    2.1694 C.3     1  UNL1        0.0051
     25 C           8.1919   34.3311    1.7647 C.3     1  UNL1        0.0051
     26 C           9.0854   34.4638    3.0015 C.3     1  UNL1        0.0606
     27 C           7.7530   34.1058    5.1326 C.2     1  UNL1        0.3577
     28 O           6.8257   34.8694    5.0125 O.2     1  UNL1       -0.2421
     29 N           8.3113   33.6268    6.2877 N.am    1  UNL1       -0.1369
     30 C          10.3384   32.3809    7.0395 C.3     1  UNL1        0.1172
     31 C          10.0782   30.9157    7.4042 C.3     1  UNL1        0.0127
     32 C          10.9612   31.7354    9.6520 C.3     1  UNL1        0.0000
     33 C          10.3294   30.5876    8.8792 C.3     1  UNL1        0.0006
@<TRIPOS>BOND
     1    32    33    1
     2    33    31    1
     3    31    30    1
     4    30    20    1
     5    20    21    2
     6    20    29    1
     7    21    22    1
     8    22    23    1
     9    22    26    1
    10    22    27    1
    11    23    24    1
    12    24    25    1
    13    25    26    1
    14    27    28    2
    15    27    29   am
    16    29    19    1
    17    19     1    1
    18     1     2   ar
    19     1     6   ar
    20     2     3   ar
    21     3     4   ar
    22     4     7    1
    23     4     5   ar
    24     7     8   ar
    25     7    12   ar
    26     8     9   ar
    27     9    10   ar
    28    10    11   ar
    29    11    12   ar
    30    12    13    1
    31    13    14   ar
    32    13    18   ar
    33    14    15   ar
    34    15    16   ar
    35    16    17    1
    36    16    18   ar
    37     5     6   ar
#	Name:			CHEMBL1515611
#	Creating user name:	trannguyen
#	Creation time:		Tue Feb  8 18:26:14 2022


#	Modifying user name:	trannguyen
#	Modification time:	Tue Feb  8 18:26:14 2022

@<TRIPOS>MOLECULE
CHEMBL1515611
 14 13 0 0 0
SMALL
GASTEIGER

@<TRIPOS>ATOM
      1 C           1.3324   31.1935    8.9168 C.2     1  UNL1        0.2395
      2 O           0.7460   30.5198    8.0666 O.2     1  UNL1       -0.2737
      3 N           0.7939   32.4278    9.2186 N.am    1  UNL1       -0.2391
      4 C           1.1396   33.3314   10.1879 C.2     1  UNL1        0.3033
      5 N           0.3275   34.4277   10.1938 N.am    1  UNL1       -0.3130
      6 O           2.0455   33.2220   11.0004 O.2     1  UNL1       -0.2527
      7 H          -0.0495   32.6151    8.6962 H       1  UNL1        0.1591
      8 H          -0.0876   34.7576    9.3344 H       1  UNL1        0.1465
      9 H           0.6153   35.1548   10.8404 H       1  UNL1        0.1465
     10 C           2.5676   30.7151    9.6803 C.3     1  UNL1        0.1335
     11 BR          4.1566   31.3786    8.7341 Br      1  UNL1       -0.0719
     12 C           3.9677   28.6013   10.1872 C.3     1  UNL1        0.0014
     13 C           2.5856   29.1886    9.8790 C.3     1  UNL1        0.0193
     14 C           1.5741   28.7384   10.9378 C.3     1  UNL1        0.0014
@<TRIPOS>BOND
     1    12    13    1
     2    13    14    1
     3    13    10    1
     4    10    11    1
     5    10     1    1
     6     1     2    2
     7     1     3   am
     8     3     4   am
     9     3     7    1
    10     4     5   am
    11     4     6    2
    12     5     8    1
    13     5     9    1
#	Name:			CHEMBL1515
#	Creating user name:	trannguyen
#	Creation time:		Tue Feb  8 18:26:14 2022


#	Modifying user name:	trannguyen
#	Modification time:	Tue Feb  8 18:26:14 2022

@<TRIPOS>MOLECULE
CHEMBL1515
 8 8 0 0 0
SMALL
GASTEIGER

@<TRIPOS>ATOM
      1 C           4.6554   29.0328   10.1661 C.3     1  UNL1        0.1325
      2 N           3.2348   29.0380   10.4202 N.ar    1  UNL1       -0.3042
      3 C           2.5312   27.9935   10.9880 C.ar    1  UNL1        0.0961
      4 C           1.2403   28.3388   11.0816 C.ar    1  UNL1        0.0928
      5 N           1.0858   29.6055   10.5789 N.ar    1  UNL1       -0.3319
      6 H           0.2235   30.1280   10.5199 H       1  UNL1        0.1679
      7 C           2.3320   30.0882   10.1461 C.ar    1  UNL1        0.1596
      8 S           2.5943   31.5740    9.4742 S.2     1  UNL1       -0.0128
@<TRIPOS>BOND
     1     1     2    1
     2     2     3   ar
     3     2     7   ar
     4     3     4   ar
     5     4     5   ar
     6     5     6    1
     7     5     7   ar
     8     7     8    2
#	Name:			CHEMBL1517
#	Creating user name:	trannguyen
#	Creation time:		Tue Feb  8 18:26:14 2022


#	Modifying user name:	trannguyen
#	Modification time:	Tue Feb  8 18:26:14 2022

@<TRIPOS>MOLECULE
CHEMBL1517
 41 44 0 0 0
SMALL
GASTEIGER

@<TRIPOS>ATOM
      1 C          10.3521   34.1327    7.9463 C.3     1  UNL1        0.1204
      2 C           9.4216   35.2392    8.4391 C.2     1  UNL1        0.1329
      3 O           9.6930   36.4931    7.9105 O.2     1  UNL1       -0.5082
      4 C           8.4096   34.9870    9.2923 C.2     1  UNL1        0.1212
      5 C           8.2447   33.5720    9.7092 C.2     1  UNL1        0.2109
      6 O           7.6977   33.2994   10.7867 O.2     1  UNL1       -0.2882
      7 C           8.5655   32.4690    8.6689 C.3     1  UNL1        0.1966
      8 O           9.2467   31.3800    9.3049 O.3     1  UNL1       -0.3729
      9 C           7.1666   31.9833    8.3343 C.2     1  UNL1        0.1415
     10 O           6.5835   31.1805    9.3068 O.2     1  UNL1       -0.5072
     11 C           6.4878   32.3916    7.2526 C.2     1  UNL1        0.0536
     12 C           4.9938   32.2175    7.1750 C.2     1  UNL1        0.1971
     13 O           4.3088   31.7939    8.1015 O.2     1  UNL1       -0.2867
     14 C           4.2985   32.7379    5.9662 C.ar    1  UNL1        0.0706
     15 C           2.9136   32.9683    6.0065 C.ar    1  UNL1        0.1364
     16 O           2.1384   32.7041    7.1043 O.3     1  UNL1       -0.5054
     17 C           2.2530   33.5075    4.9083 C.ar    1  UNL1        0.0367
     18 C           2.9676   33.8134    3.7539 C.ar    1  UNL1        0.0029
     19 C           4.3434   33.5779    3.6952 C.ar    1  UNL1       -0.0017
     20 C           5.0297   33.0400    4.7986 C.ar    1  UNL1        0.0081
     21 C           6.5279   32.7552    4.7717 C.3     1  UNL1        0.1133
     22 C           6.7332   31.2628    4.4355 C.3     1  UNL1        0.0343
     23 O           7.1650   33.5370    3.7497 O.3     1  UNL1       -0.3823
     24 C           7.1131   33.2022    6.1519 C.3     1  UNL1        0.0837
     25 C           8.6608   33.3649    6.1973 C.3     1  UNL1        0.1221
     26 O           9.3135   32.6887    5.1138 O.3     1  UNL1       -0.3839
     27 C           9.4259   32.9512    7.4906 C.3     1  UNL1        0.0879
     28 H           9.0985   37.1550    8.3355 H       1  UNL1        0.2918
     29 H           8.5727   30.7867    9.6844 H       1  UNL1        0.2113
     30 H           6.6687   31.6336   10.1745 H       1  UNL1        0.2918
     31 H           2.7052   32.2593    7.7757 H       1  UNL1        0.2922
     32 H           6.9578   33.1221    2.8924 H       1  UNL1        0.2107
     33 H           8.9968   33.1205    4.2926 H       1  UNL1        0.2104
     34 C           7.4972   36.0739    9.7243 C.2     1  UNL1        0.2483
     35 N           7.0608   36.0319   11.0092 N.am    1  UNL1       -0.3252
     36 O           7.1125   36.9395    8.9456 O.2     1  UNL1       -0.2702
     37 H           7.4784   35.4144   11.7012 H       1  UNL1        0.1453
     38 H           6.4713   36.7835   11.3424 H       1  UNL1        0.1453
     39 C          12.3137   32.7945    8.5499 C.3     1  UNL1        0.0900
     40 N          11.3480   33.8056    9.0027 N.3     1  UNL1       -0.2652
     41 C          12.1065   34.9981    9.4209 C.3     1  UNL1        0.0900
@<TRIPOS>BOND
     1    39    40    1
     2    40    41    1
     3    40     1    1
     4     1     2    1
     5     1    27    1
     6     2     3    1
     7     2     4    2
     8     3    28    1
     9     4    34    1
    10     4     5    1
    11    34    35   am
    12    34    36    2
    13    35    37    1
    14    35    38    1
    15     5     6    2
    16     5     7    1
    17     7     8    1
    18     7     9    1
    19     7    27    1
    20     8    29    1
    21     9    10    1
    22     9    11    2
    23    10    30    1
    24    11    12    1
    25    11    24    1
    26    12    13    2
    27    12    14    1
    28    14    15   ar
    29    14    20   ar
    30    15    16    1
    31    15    17   ar
    32    16    31    1
    33    17    18   ar
    34    18    19   ar
    35    19    20   ar
    36    20    21    1
    37    21    22    1
    38    21    23    1
    39    21    24    1
    40    23    32    1
    41    24    25    1
    42    25    26    1
    43    25    27    1
    44    26    33    1
#	Name:			CHEMBL1518
#	Creating user name:	trannguyen
#	Creation time:		Tue Feb  8 18:26:14 2022


#	Modifying user name:	trannguyen
#	Modification time:	Tue Feb  8 18:26:14 2022

@<TRIPOS>MOLECULE
CHEMBL1518
 13 13 0 0 0
SMALL
GASTEIGER

@<TRIPOS>ATOM
      1 C           1.4687   29.6602    9.7933 C.ar    1  UNL1        0.0397
      2 C           1.1838   28.5337   10.4621 C.ar    1  UNL1        0.0731
      3 C           2.2797   27.7405   11.0548 C.ar    1  UNL1        0.2602
      4 O           2.0506   26.7086   11.6729 O.2     1  UNL1       -0.2671
      5 N           3.5421   28.2336   10.8693 N.ar    1  UNL1       -0.3023
      6 H           4.2997   27.7036   11.2739 H       1  UNL1        0.1708
      7 C           3.8359   29.3743   10.1816 C.ar    1  UNL1        0.1582
      8 S           5.3970   29.9126    9.9967 S.2     1  UNL1       -0.0130
      9 N           2.7782   30.0564    9.6516 N.ar    1  UNL1       -0.3375
     10 H           2.9955   30.9061    9.1393 H       1  UNL1        0.1675
     11 C           0.4071   30.5297    9.1681 C.3     1  UNL1        0.0438
     12 C           0.7899   32.9198    9.9870 C.3     1  UNL1        0.0004
     13 C           0.8784   31.9472    8.8195 C.3     1  UNL1        0.0062
@<TRIPOS>BOND
     1    12    13    1
     2    13    11    1
     3    11     1    1
     4     1     2   ar
     5     1     9   ar
     6     2     3   ar
     7     3     4    2
     8     3     5   ar
     9     5     6    1
    10     5     7   ar
    11     7     8    2
    12     7     9   ar
    13     9    10    1
#	Name:			CHEMBL1521
#	Creating user name:	trannguyen
#	Creation time:		Tue Feb  8 18:26:14 2022


#	Modifying user name:	trannguyen
#	Modification time:	Tue Feb  8 18:26:14 2022

@<TRIPOS>MOLECULE
CHEMBL1521
 23 25 0 0 0
SMALL
GASTEIGER

@<TRIPOS>ATOM
      1 C           5.1503   33.1276    4.8540 C.ar    1  UNL1        0.0539
      2 C           3.9777   33.8772    4.6908 C.ar    1  UNL1        0.0149
      3 C           2.9616   33.8709    5.6530 C.ar    1  UNL1        0.0013
      4 C           3.0911   33.1072    6.8084 C.ar    1  UNL1        0.0016
      5 C           4.2315   32.3222    7.0152 C.ar    1  UNL1        0.0190
      6 C           5.2427   32.3605    6.0336 C.ar    1  UNL1        0.0164
      7 C           4.3528   31.4400    8.2098 C.ar    1  UNL1        0.0860
      8 C           5.5335   31.4029    8.8612 C.ar    1  UNL1        0.0399
      9 C           5.6106   30.5430   10.0658 C.ar    1  UNL1        0.1021
     10 N           4.6412   29.8480   10.5713 N.ar    1  UNL1       -0.2243
     11 C           3.4456   29.9208    9.9112 C.ar    1  UNL1        0.1749
     12 C           2.2214   29.3512   10.1768 C.ar    1  UNL1        0.1249
     13 C           1.3760   29.7840    9.1524 C.ar    1  UNL1        0.1339
     14 N           1.9936   30.5767    8.2775 N.ar    1  UNL1       -0.1614
     15 N           3.2770   30.6840    8.7379 N.ar    1  UNL1       -0.2114
     16 C           1.8968   28.5022   11.2723 C.1     1  UNL1        0.1052
     17 N           1.6502   27.7781   12.1417 N.1     1  UNL1       -0.1907
     18 N           6.2080   33.1022    3.8532 N.am    1  UNL1       -0.2586
     19 C           6.5224   31.9286    3.1366 C.2     1  UNL1        0.2298
     20 C           7.6770   32.0095    2.1589 C.3     1  UNL1        0.0952
     21 O           5.9076   30.8624    3.1997 O.2     1  UNL1       -0.2745
     22 C           7.9406   34.5845    4.8484 C.3     1  UNL1        0.0237
     23 C           7.0109   34.3298    3.6672 C.3     1  UNL1        0.0982
@<TRIPOS>BOND
     1    22    23    1
     2    23    18    1
     3    18    19   am
     4    18     1    1
     5    19    20    1
     6    19    21    2
     7     1     2   ar
     8     1     6   ar
     9     2     3   ar
    10     3     4   ar
    11     4     5   ar
    12     5     7    1
    13     5     6   ar
    14     7     8   ar
    15     7    15   ar
    16     8     9   ar
    17     9    10   ar
    18    10    11   ar
    19    11    12   ar
    20    11    15   ar
    21    12    16    1
    22    12    13   ar
    23    16    17    3
    24    13    14   ar
    25    14    15   ar
#	Name:			CHEMBL15245
#	Creating user name:	trannguyen
#	Creation time:		Tue Feb  8 18:26:14 2022


#	Modifying user name:	trannguyen
#	Modification time:	Tue Feb  8 18:26:14 2022

@<TRIPOS>MOLECULE
CHEMBL15245
 28 32 0 0 0
SMALL
GASTEIGER

@<TRIPOS>ATOM
      1 C           6.4521   32.8925    5.1890 C.3     1  UNL1        0.1258
      2 C           7.4668   33.9719    4.7443 C.3     1  UNL1        0.1210
      3 O           6.8291   35.1247    4.1908 O.3     1  UNL1       -0.3839
      4 C           8.3484   34.4918    5.8856 C.3     1  UNL1        0.0299
      5 C           8.5576   33.4481    6.9656 C.3     1  UNL1        0.0039
      6 C           7.2263   33.0591    7.6348 C.3     1  UNL1        0.0167
      7 C           7.4081   31.7237    8.3855 C.3     1  UNL1        0.0724
      8 N           6.1861   31.0803    8.8470 N.3     1  UNL1       -0.2688
      9 C           6.2719   30.5347   10.2141 C.3     1  UNL1        0.0771
     10 C           5.1511   29.5042   10.5108 C.3     1  UNL1        0.0449
     11 C           3.8467   29.9647    9.9579 C.ar    1  UNL1       -0.0067
     12 C           3.7831   31.0175    9.0671 C.ar    1  UNL1        0.0443
     13 N           2.4699   31.2021    8.7287 N.ar    1  UNL1       -0.3556
     14 H           2.1168   31.9048    8.0940 H       1  UNL1        0.1657
     15 C           1.6846   30.2616    9.3630 C.ar    1  UNL1        0.0561
     16 C           0.3015   30.0512    9.2992 C.ar    1  UNL1        0.0169
     17 C          -0.2306   29.0027   10.0564 C.ar    1  UNL1        0.0015
     18 C           0.5884   28.1989   10.8464 C.ar    1  UNL1        0.0001
     19 C           1.9691   28.4219   10.9006 C.ar    1  UNL1        0.0012
     20 C           2.5295   29.4707   10.1462 C.ar    1  UNL1        0.0128
     21 C           4.9479   31.8378    8.6005 C.3     1  UNL1        0.0956
     22 C           4.8944   32.1345    7.1020 C.3     1  UNL1        0.0227
     23 C           6.0166   33.0958    6.6590 C.3     1  UNL1        0.0160
     24 H           6.5236   34.9017    3.2933 H       1  UNL1        0.2104
     25 C           5.2893   32.8493    4.2090 C.2     1  UNL1        0.3189
     26 O           5.1121   32.0061    3.3394 O.2     1  UNL1       -0.2500
     27 C           3.1786   33.7868    3.7865 C.3     1  UNL1        0.2556
     28 O           4.4386   33.8893    4.4546 O.3     1  UNL1       -0.4443
@<TRIPOS>BOND
     1    27    28    1
     2    28    25    1
     3    25    26    2
     4     1     2    1
     5     1    23    1
     6     1    25    1
     7     2     4    1
     8     2     3    1
     9     3    24    1
    10     4     5    1
    11     5     6    1
    12     6     7    1
    13     6    23    1
    14     7     8    1
    15     8     9    1
    16     8    21    1
    17     9    10    1
    18    10    11    1
    19    11    12   ar
    20    11    20   ar
    21    12    13   ar
    22    12    21    1
    23    13    15   ar
    24    13    14    1
    25    15    16   ar
    26    15    20   ar
    27    16    17   ar
    28    17    18   ar
    29    18    19   ar
    30    19    20   ar
    31    21    22    1
    32    22    23    1
#	Name:			CHEMBL1527608
#	Creating user name:	trannguyen
#	Creation time:		Tue Feb  8 18:26:14 2022


#	Modifying user name:	trannguyen
#	Modification time:	Tue Feb  8 18:26:14 2022

@<TRIPOS>MOLECULE
CHEMBL1527608
 19 21 0 0 0
SMALL
GASTEIGER

@<TRIPOS>ATOM
      1 C           0.5028   28.7650   10.3220 C.3     1  UNL1        0.1383
      2 N           1.6779   29.4643    9.8418 N.ar    1  UNL1       -0.2454
      3 C           1.5282   30.3427    8.7670 C.ar    1  UNL1        0.2832
      4 O           0.4764   30.5221    8.1571 O.2     1  UNL1       -0.2652
      5 C           2.7343   31.0115    8.4247 C.ar    1  UNL1        0.1529
      6 C           3.9291   30.7433    9.0250 C.ar    1  UNL1        0.1696
      7 N           4.9378   31.4964    8.5075 N.ar    1  UNL1       -0.2063
      8 C           4.3553   32.2421    7.5909 C.ar    1  UNL1        0.1803
      9 N           3.0081   31.9934    7.5148 N.ar    1  UNL1       -0.2988
     10 N           4.0389   29.8131   10.0289 N.ar    1  UNL1       -0.2628
     11 C           5.3107   29.5074   10.6519 C.3     1  UNL1        0.1366
     12 C           2.8965   29.1455   10.4721 C.ar    1  UNL1        0.3350
     13 O           2.9502   28.3069   11.3770 O.2     1  UNL1       -0.2461
     14 C           2.0748   32.7061    6.6678 C.3     1  UNL1        0.1689
     15 C           1.7532   31.9619    5.3761 C.3     1  UNL1        0.2589
     16 O           1.9113   32.8504    4.2577 O.3     1  UNL1       -0.3264
     17 C           2.3977   32.0049    3.2175 C.3     1  UNL1        0.1769
     18 C           3.2932   31.0490    3.9567 C.3     1  UNL1        0.1769
     19 O           2.6282   30.8333    5.2015 O.3     1  UNL1       -0.3264
@<TRIPOS>BOND
     1     1     2    1
     2     2     3   ar
     3     2    12   ar
     4     3     4    2
     5     3     5   ar
     6     5     6   ar
     7     5     9   ar
     8     6     7   ar
     9     6    10   ar
    10     7     8   ar
    11     8     9   ar
    12     9    14    1
    13    14    15    1
    14    15    16    1
    15    15    19    1
    16    16    17    1
    17    17    18    1
    18    18    19    1
    19    10    11    1
    20    10    12   ar
    21    12    13    2
#	Name:			CHEMBL153062
#	Creating user name:	trannguyen
#	Creation time:		Tue Feb  8 18:26:14 2022


#	Modifying user name:	trannguyen
#	Modification time:	Tue Feb  8 18:26:14 2022

@<TRIPOS>MOLECULE
CHEMBL153062
 17 17 0 0 0
SMALL
GASTEIGER

@<TRIPOS>ATOM
      1 C           3.5133   31.2985    8.6540 C.3     1  UNL1        0.0264
      2 C           3.2000   30.0555    9.4610 C.ar    1  UNL1       -0.0220
      3 C           4.1476   29.0383    9.6854 C.ar    1  UNL1       -0.0012
      4 C           3.7984   27.8462   10.3172 C.ar    1  UNL1        0.0363
      5 C           2.5132   27.6893   10.8071 C.ar    1  UNL1        0.1337
      6 O           2.1406   26.5253   11.4228 O.3     1  UNL1       -0.5055
      7 C           1.5788   28.7043   10.6870 C.ar    1  UNL1        0.0363
      8 C           1.9157   29.8838   10.0063 C.ar    1  UNL1       -0.0012
      9 H           2.8782   25.8965   11.3677 H       1  UNL1        0.2922
     10 C           2.4001   31.8721    7.7522 C.3     1  UNL1        0.0047
     11 C           2.0536   30.9793    6.5507 C.3     1  UNL1        0.0003
     12 C           2.0131   31.7111    5.2082 C.3     1  UNL1        0.0000
     13 C           2.9468   31.1316    4.1449 C.3     1  UNL1        0.0000
     14 C           4.1350   32.0539    3.8258 C.3     1  UNL1        0.0000
     15 C           5.4869   31.3344    3.8829 C.3     1  UNL1        0.0000
     16 C           5.6907   32.7489    5.9500 C.3     1  UNL1        0.0000
     17 C           6.4507   31.9694    4.8843 C.3     1  UNL1        0.0000
@<TRIPOS>BOND
     1    16    17    1
     2    17    15    1
     3    15    14    1
     4    14    13    1
     5    13    12    1
     6    12    11    1
     7    11    10    1
     8    10     1    1
     9     1     2    1
    10     2     3   ar
    11     2     8   ar
    12     3     4   ar
    13     4     5   ar
    14     5     6    1
    15     5     7   ar
    16     6     9    1
    17     7     8   ar
#	Name:			CHEMBL153479
#	Creating user name:	trannguyen
#	Creation time:		Tue Feb  8 18:26:14 2022


#	Modifying user name:	trannguyen
#	Modification time:	Tue Feb  8 18:26:14 2022

@<TRIPOS>MOLECULE
CHEMBL153479
 22 23 0 0 0
SMALL
GASTEIGER

@<TRIPOS>ATOM
      1 N           2.0020   31.6310    6.4329 N.pl3   1  UNL1       -0.3568
      2 C           3.3006   32.0814    6.1092 C.ar    1  UNL1        0.0451
      3 C           3.6969   32.2200    4.7603 C.ar    1  UNL1        0.0477
      4 BR          2.4348   32.0410    3.3481 Br      1  UNL1       -0.0477
      5 C           5.0179   32.5139    4.4239 C.ar    1  UNL1        0.0146
      6 C           5.9688   32.6344    5.4242 C.ar    1  UNL1        0.0349
      7 BR          7.7689   32.9981    4.9781 Br      1  UNL1       -0.0490
      8 C           5.6147   32.4606    6.7649 C.ar    1  UNL1        0.0050
      9 C           4.2831   32.1720    7.1152 C.ar    1  UNL1        0.0075
     10 H           1.3155   31.8591    5.7244 H       1  UNL1        0.1424
     11 H           1.7298   31.9632    7.3635 H       1  UNL1        0.1424
     12 C           3.9727   31.8754    8.5708 C.3     1  UNL1        0.0968
     13 N           3.4356   30.5186    8.7847 N.3     1  UNL1       -0.2948
     14 H           2.4887   30.4934    8.4030 H       1  UNL1        0.1235
     15 C           3.3744   30.1799   10.2252 C.3     1  UNL1        0.0544
     16 C           1.9420   29.7892   10.6395 C.3     1  UNL1        0.0182
     17 C           1.4711   28.4852    9.9872 C.3     1  UNL1        0.0306
     18 C           2.4517   27.3308   10.2079 C.3     1  UNL1        0.1106
     19 O           2.3617   26.8921   11.5636 O.3     1  UNL1       -0.3845
     20 C           3.9053   27.7083    9.9283 C.3     1  UNL1        0.0306
     21 C           4.3086   29.0194   10.6059 C.3     1  UNL1        0.0182
     22 H           1.5363   26.3837   11.6455 H       1  UNL1        0.2103
@<TRIPOS>BOND
     1     1     2    1
     2     1    10    1
     3     1    11    1
     4     2     3   ar
     5     2     9   ar
     6     3     4    1
     7     3     5   ar
     8     5     6   ar
     9     6     7    1
    10     6     8   ar
    11     8     9   ar
    12     9    12    1
    13    12    13    1
    14    13    14    1
    15    15    16    1
    16    15    21    1
    17    15    13    1
    18    16    17    1
    19    17    18    1
    20    18    19    1
    21    18    20    1
    22    19    22    1
    23    20    21    1
#	Name:			CHEMBL1535
#	Creating user name:	trannguyen
#	Creation time:		Tue Feb  8 18:26:14 2022


#	Modifying user name:	trannguyen
#	Modification time:	Tue Feb  8 18:26:14 2022

@<TRIPOS>MOLECULE
CHEMBL1535
 25 26 0 0 0
SMALL
GASTEIGER

@<TRIPOS>ATOM
      1 N           2.8142   33.3397    6.7394 N.pl3   1  UNL1       -0.3340
      2 H           2.5359   34.2864    6.9844 H       1  UNL1        0.1468
      3 C           3.4428   32.6590    7.7853 C.ar    1  UNL1        0.0476
      4 C           4.7957   32.8434    8.0778 C.ar    1  UNL1        0.0350
      5 C           5.3916   32.0712    9.0537 C.ar    1  UNL1        0.1001
      6 N           4.7621   31.1053    9.7453 N.ar    1  UNL1       -0.2437
      7 C           3.4648   30.8933    9.4710 C.ar    1  UNL1        0.0833
      8 C           2.8323   29.8806   10.1815 C.ar    1  UNL1        0.0305
      9 C           1.4830   29.5975    9.9794 C.ar    1  UNL1        0.0592
     10 CL          0.7293   28.3415   10.8826 Cl      1  UNL1       -0.0822
     11 C           0.7478   30.3196    9.0567 C.ar    1  UNL1        0.0115
     12 C           1.3732   31.3265    8.3176 C.ar    1  UNL1        0.0036
     13 C           2.7478   31.6385    8.5115 C.ar    1  UNL1        0.0309
     14 C           3.1030   33.1649    5.3091 C.3     1  UNL1        0.0691
     15 C           1.9413   33.7234    4.4845 C.3     1  UNL1        0.0212
     16 C           3.3595   31.6546    5.0823 C.3     1  UNL1        0.0209
     17 C           4.2565   31.2996    3.8776 C.3     1  UNL1        0.0190
     18 C           5.1602   32.4936    3.5005 C.3     1  UNL1        0.0722
     19 N           6.6189   32.3443    3.6717 N.3     1  UNL1       -0.2706
     20 C           8.5442   32.6638    5.2639 C.3     1  UNL1        0.0188
     21 C           7.1502   33.1149    4.8114 C.3     1  UNL1        0.0722
     22 C           7.4130   32.5894    2.4555 C.3     1  UNL1        0.1042
     23 C           8.0821   31.3706    1.8105 C.3     1  UNL1        0.1544
     24 O           7.4409   31.0582    0.5747 O.3     1  UNL1       -0.3805
     25 H           6.5993   30.6212    0.7896 H       1  UNL1        0.2105
@<TRIPOS>BOND
     1    20    21    1
     2    21    19    1
     3    19    22    1
     4    19    18    1
     5    22    23    1
     6    23    24    1
     7    24    25    1
     8    18    17    1
     9    17    16    1
    10    16    14    1
    11    14    15    1
    12    14     1    1
    13     1     3    1
    14     1     2    1
    15     3     4   ar
    16     3    13   ar
    17     4     5   ar
    18     5     6   ar
    19     6     7   ar
    20     7     8   ar
    21     7    13   ar
    22     8     9   ar
    23     9    10    1
    24     9    11   ar
    25    11    12   ar
    26    12    13   ar
#	Name:			CHEMBL1536
#	Creating user name:	trannguyen
#	Creation time:		Tue Feb  8 18:26:14 2022


#	Modifying user name:	trannguyen
#	Modification time:	Tue Feb  8 18:26:14 2022

@<TRIPOS>MOLECULE
CHEMBL1536
 30 32 0 0 0
SMALL
GASTEIGER

@<TRIPOS>ATOM
      1 C           6.6968   31.6949    5.2988 C.2     1  UNL1       -0.0088
      2 C           7.7695   32.3996    5.7126 C.2     1  UNL1       -0.0446
      3 C           8.1931   33.7317    5.1166 C.3     1  UNL1        0.0220
      4 C           8.3049   34.8489    6.1510 C.3     1  UNL1        0.0044
      5 C           8.2357   34.3486    7.5876 C.3     1  UNL1        0.0006
      6 C           9.0704   33.0908    7.8608 C.3     1  UNL1        0.0038
      7 C          10.5735   33.4512    7.6918 C.3     1  UNL1        0.0003
      8 C           8.7246   31.9491    6.8279 C.3     1  UNL1        0.0183
      9 C           8.3278   30.7432    7.6876 C.3     1  UNL1        0.0040
     10 C           9.0575   30.9580    9.0047 C.3     1  UNL1        0.0007
     11 C           8.8862   32.4662    9.3010 C.3     1  UNL1        0.0043
     12 C           4.0763   33.3304    6.6939 C.2     1  UNL1       -0.0049
     13 C           3.7291   32.5139    5.6968 C.2     1  UNL1       -0.0260
     14 C           2.4952   31.6479    5.7148 C.3     1  UNL1        0.0285
     15 C           1.5338   32.0721    4.6021 C.3     1  UNL1        0.0342
     16 C           2.2188   32.1085    3.2303 C.3     1  UNL1        0.1152
     17 O           2.3972   30.7773    2.7418 O.3     1  UNL1       -0.3841
     18 C           3.5783   32.8320    3.2488 C.3     1  UNL1        0.0552
     19 C           4.4586   32.4574    4.4345 C.2     1  UNL1       -0.0237
     20 C           5.7415   32.0974    4.2746 C.2     1  UNL1       -0.0051
     21 H           1.5155   30.3756    2.6592 H       1  UNL1        0.2103
     22 C           7.5879   32.7625   10.1417 C.3     1  UNL1        0.0217
     23 C           7.6721   32.4215   11.6415 C.3     1  UNL1        0.0047
     24 C           6.4000   32.0018    9.5512 C.2     1  UNL1       -0.0310
     25 C           5.6409   31.0947   10.1970 C.2     1  UNL1       -0.0310
     26 C           4.4846   30.3442    9.5698 C.3     1  UNL1        0.0217
     27 C           3.3388   31.3248    9.2753 C.3     1  UNL1        0.0047
     28 C           4.0022   29.1194   10.4016 C.3     1  UNL1        0.0040
     29 C           2.4735   29.0688   10.5191 C.3     1  UNL1        0.0003
     30 C           4.5212   27.7669    9.9041 C.3     1  UNL1        0.0003
@<TRIPOS>BOND
     1    12    13    2
     2    13    14    1
     3    13    19    1
     4    14    15    1
     5    15    16    1
     6    16    17    1
     7    16    18    1
     8    17    21    1
     9    18    19    1
    10    19    20    2
    11    20     1    1
    12     1     2    2
    13     2     3    1
    14     2     8    1
    15     3     4    1
    16     4     5    1
    17     5     6    1
    18     6     8    1
    19     6    11    1
    20     6     7    1
    21     8     9    1
    22     9    10    1
    23    10    11    1
    24    11    22    1
    25    22    24    1
    26    22    23    1
    27    24    25    2
    28    26    27    1
    29    26    28    1
    30    26    25    1
    31    28    29    1
    32    28    30    1
#	Name:			CHEMBL1537
#	Creating user name:	trannguyen
#	Creation time:		Tue Feb  8 18:26:14 2022


#	Modifying user name:	trannguyen
#	Modification time:	Tue Feb  8 18:26:14 2022

@<TRIPOS>MOLECULE
CHEMBL1537
 36 39 0 0 0
SMALL
GASTEIGER

@<TRIPOS>ATOM
      1 N           5.2989   32.7890    8.9990 N.am    1  UNL1       -0.2947
      2 C           4.1476   33.3788    8.4949 C.2     1  UNL1        0.2451
      3 O           4.0377   34.6059    8.5099 O.2     1  UNL1       -0.2729
      4 H           5.4708   31.8052    8.8117 H       1  UNL1        0.1500
      5 C           8.9970   31.3413    7.2781 C.3     1  UNL1        0.0131
      6 C           9.3831   31.6797    8.7271 C.3     1  UNL1        0.0679
      7 C          10.5333   30.7593    9.1539 C.3     1  UNL1        0.0131
      8 S           7.9430   31.2294    9.7924 S.3     1  UNL1       -0.1185
      9 C           7.5531   32.9218   10.3164 C.3     1  UNL1        0.1509
     10 CA          6.3322   33.6259    9.6510 C.3     1  UNL1        0.1777
     11 C           7.4015   34.2576    8.7100 C.2     1  UNL1        0.2471
     12 O           7.4071   34.7909    7.6357 O.2     1  UNL1       -0.2730
     13 N           8.4348   33.7945    9.5207 N.am    1  UNL1       -0.2597
     14 CA          9.6296   33.2036    8.8880 C.3     1  UNL1        0.1843
     15 C          10.8814   33.5795    9.6962 C.2     1  UNL1        0.3329
     16 O          11.9598   33.8714    9.2030 O.2     1  UNL1       -0.2484
     17 OXT        10.6828   33.5908   11.0371 O.3     1  UNL1       -0.4790
     18 HXT         9.7428   33.4155   11.2403 H       1  UNL1        0.2951
     19 CA          3.1411   32.4202    7.7900 C.3     1  UNL1        0.1727
     20 N           3.0759   31.2206    8.6156 N.am    1  UNL1       -0.2787
     21 C           1.9038   30.6418    9.0102 C.2     1  UNL1        0.3115
     22 O           0.8082   31.0910    8.6781 O.2     1  UNL1       -0.2521
     23 N           2.0333   29.5423    9.8441 N.am    1  UNL1       -0.1969
     24 C           0.8744   28.8301   10.3451 C.3     1  UNL1        0.1253
     25 C           1.4311   27.9697   11.4670 C.3     1  UNL1        0.1130
     26 N           2.8191   27.8443   11.1253 N.am    1  UNL1       -0.2867
     27 C           3.2014   28.8880   10.2852 C.2     1  UNL1        0.3110
     28 O           4.3577   29.1816   10.0325 O.2     1  UNL1       -0.2521
     29 H           3.9507   30.8205    8.9565 H       1  UNL1        0.1517
     30 H           3.5188   27.3631   11.6769 H       1  UNL1        0.1510
     31 C           3.5274   32.1285    6.3419 C.ar    1  UNL1        0.0043
     32 C           4.7897   32.5062    5.8452 C.ar    1  UNL1       -0.0022
     33 C           5.2091   32.1140    4.5669 C.ar    1  UNL1       -0.0003
     34 C           4.3814   31.3235    3.7736 C.ar    1  UNL1       -0.0000
     35 C           3.1100   30.9848    4.2289 C.ar    1  UNL1       -0.0003
     36 C           2.6746   31.4092    5.4890 C.ar    1  UNL1       -0.0022
@<TRIPOS>BOND
     1     5     6    1
     2     6     7    1
     3     6     8    1
     4     6    14    1
     5     8     9    1
     6     9    10    1
     7     9    13    1
     8    10    11    1
     9    10     1    1
    10     1     2   am
    11     1     4    1
    12     2     3    2
    13    19    20    1
    14    19    31    1
    15    19     2    1
    16    20    21   am
    17    20    29    1
    18    21    22    2
    19    21    23   am
    20    23    24    1
    21    23    27   am
    22    24    25    1
    23    25    26    1
    24    26    27   am
    25    26    30    1
    26    27    28    2
    27    31    32   ar
    28    31    36   ar
    29    32    33   ar
    30    33    34   ar
    31    34    35   ar
    32    35    36   ar
    33    11    12    2
    34    11    13   am
    35    13    14    1
    36    14    15    1
    37    15    16    2
    38    15    17    1
    39    17    18    1
#	Name:			CHEMBL1539
#	Creating user name:	trannguyen
#	Creation time:		Tue Feb  8 18:26:14 2022


#	Modifying user name:	trannguyen
#	Modification time:	Tue Feb  8 18:26:14 2022

@<TRIPOS>MOLECULE
CHEMBL1539
 24 25 0 0 0
SMALL
GASTEIGER

@<TRIPOS>ATOM
      1 N           3.3786   32.8233    7.4235 N.pl3   1  UNL1       -0.1963
      2 H           3.6607   33.7913    7.5688 H       1  UNL1        0.1754
      3 C           5.0603   32.0573    4.2848 C.ar    1  UNL1        0.2645
      4 N           4.1794   31.1750    3.7591 N.ar    1  UNL1       -0.1866
      5 C           3.0830   30.9176    4.4798 C.ar    1  UNL1        0.2029
      6 N           2.7898   31.4463    5.6667 N.ar    1  UNL1       -0.2044
      7 C           3.6926   32.3228    6.1317 C.ar    1  UNL1        0.1877
      8 C           4.8743   32.6896    5.5003 C.ar    1  UNL1        0.2247
      9 C           6.0471   33.4442    2.6626 C.3     1  UNL1        0.2543
     10 O           6.1899   32.3358    3.5449 O.3     1  UNL1       -0.4540
     11 O           5.6486   33.6028    6.1549 O.3     1  UNL1       -0.4644
     12 C           6.9559   33.2142    6.5538 C.3     1  UNL1        0.2528
     13 S           4.0044   31.8933    8.6843 S.O2    1  UNL1        0.0748
     14 O           5.0399   31.0248    8.1706 O.2     1  UNL1       -0.1499
     15 O           4.2861   32.8197    9.7647 O.2     1  UNL1       -0.1499
     16 C           2.6274   30.9029    9.1999 C.ar    1  UNL1        0.1253
     17 C           1.3347   31.2691    8.8201 C.ar    1  UNL1        0.0214
     18 C           0.2548   30.4702    9.2013 C.ar    1  UNL1        0.0155
     19 C           0.4490   29.3365    9.9968 C.ar    1  UNL1        0.0416
     20 N          -0.6229   28.4755   10.2604 N.pl3   1  UNL1       -0.3570
     21 C           1.7560   28.9536   10.3197 C.ar    1  UNL1        0.0155
     22 C           2.8473   29.7396    9.9377 C.ar    1  UNL1        0.0214
     23 H          -1.5273   28.9366   10.2685 H       1  UNL1        0.1424
     24 H          -0.4845   27.8852   11.0744 H       1  UNL1        0.1424
@<TRIPOS>BOND
     1     9    10    1
     2    10     3    1
     3     3     4   ar
     4     3     8   ar
     5     4     5   ar
     6     5     6   ar
     7     6     7   ar
     8     7     1    1
     9     7     8   ar
    10     1    13    1
    11     1     2    1
    12    13    14    2
    13    13    15    2
    14    13    16    1
    15    16    17   ar
    16    16    22   ar
    17    17    18   ar
    18    18    19   ar
    19    19    20    1
    20    19    21   ar
    21    20    23    1
    22    20    24    1
    23    21    22   ar
    24     8    11    1
    25    11    12    1
#	Name:			CHEMBL1540
#	Creating user name:	trannguyen
#	Creation time:		Tue Feb  8 18:26:14 2022


#	Modifying user name:	trannguyen
#	Modification time:	Tue Feb  8 18:26:14 2022

@<TRIPOS>MOLECULE
CHEMBL1540
 23 24 0 0 0
SMALL
GASTEIGER

@<TRIPOS>ATOM
      1 N          -0.5345   29.7219    9.8445 N.pl3   1  UNL1       -0.3273
      2 C           0.7616   29.2736   10.0376 C.ar    1  UNL1        0.2176
      3 N           0.8858   28.0991   10.6797 N.ar    1  UNL1       -0.1778
      4 C           2.1317   27.6668   10.9524 C.ar    1  UNL1        0.2452
      5 O           2.1940   26.4697   11.6104 O.3     1  UNL1       -0.4908
      6 C           3.2445   28.4203   10.6039 C.ar    1  UNL1        0.1699
      7 N           4.6028   28.2706   10.7891 N.ar    1  UNL1       -0.2175
      8 C           5.1366   29.3456   10.2480 C.ar    1  UNL1        0.1798
      9 N           4.1889   30.1627    9.6900 N.ar    1  UNL1       -0.2943
     10 C           2.9663   29.6034    9.9418 C.ar    1  UNL1        0.1703
     11 N           1.7479   30.0872    9.6299 N.ar    1  UNL1       -0.1948
     12 H          -1.1383   29.3019   10.5352 H       1  UNL1        0.1452
     13 H          -0.5376   30.7294    9.7888 H       1  UNL1        0.1452
     14 H           1.2510   26.2511   11.6854 H       1  UNL1        0.2938
     15 C           4.4438   31.4072    8.9898 C.3     1  UNL1        0.1092
     16 C           3.9465   31.3640    7.5414 C.3     1  UNL1        0.0296
     17 C           3.0094   32.5319    7.1554 C.3     1  UNL1        0.0606
     18 C           1.8599   32.0317    6.2630 C.3     1  UNL1        0.1396
     19 O           1.3464   30.8106    6.7817 O.3     1  UNL1       -0.3819
     20 H           0.5841   30.5663    6.2268 H       1  UNL1        0.2104
     21 C           2.4449   33.2484    8.3882 C.3     1  UNL1        0.1396
     22 O           1.1434   32.7764    8.7139 O.3     1  UNL1       -0.3819
     23 H           0.6221   32.7181    7.8943 H       1  UNL1        0.2104
@<TRIPOS>BOND
     1     1     2    1
     2     1    12    1
     3     1    13    1
     4     2     3   ar
     5     2    11   ar
     6     3     4   ar
     7     4     5    1
     8     4     6   ar
     9     5    14    1
    10     6     7   ar
    11     6    10   ar
    12     7     8   ar
    13     8     9   ar
    14     9    15    1
    15     9    10   ar
    16    15    16    1
    17    16    17    1
    18    17    18    1
    19    17    21    1
    20    18    19    1
    21    19    20    1
    22    21    22    1
    23    22    23    1
    24    10    11   ar
#	Name:			CHEMBL154111
#	Creating user name:	trannguyen
#	Creation time:		Tue Feb  8 18:26:14 2022


#	Modifying user name:	trannguyen
#	Modification time:	Tue Feb  8 18:26:14 2022

@<TRIPOS>MOLECULE
CHEMBL154111
 21 22 0 0 0
SMALL
GASTEIGER

@<TRIPOS>ATOM
      1 O           2.3628   31.5830    9.4986 O.3     1  UNL1       -0.4208
      2 C           2.8361   30.2704    9.6987 C.ar    1  UNL1        0.1549
      3 C           1.9295   29.2325    9.9449 C.ar    1  UNL1        0.0378
      4 C           2.3931   27.9355   10.1693 C.ar    1  UNL1        0.0031
      5 C           3.7614   27.6735   10.1749 C.ar    1  UNL1        0.0004
      6 C           4.6691   28.7138    9.9708 C.ar    1  UNL1        0.0095
      7 C           4.2161   30.0249    9.7399 C.ar    1  UNL1        0.1100
      8 C           5.2547   31.0536    9.5193 C.2     1  UNL1        0.3410
      9 O           6.3288   30.8532    8.9682 O.2     1  UNL1       -0.2450
     10 O           4.9710   32.2508   10.0484 O.3     1  UNL1       -0.4770
     11 H           5.7521   32.7972    9.8216 H       1  UNL1        0.2954
     12 O           0.2968   31.9826    8.4802 O.2     1  UNL1       -0.2444
     13 C           1.5145   31.8834    8.4425 C.2     1  UNL1        0.3487
     14 C           2.3040   31.9850    7.1915 C.ar    1  UNL1        0.1096
     15 C           1.9801   31.1201    6.1358 C.ar    1  UNL1        0.0095
     16 C           2.7083   31.1615    4.9441 C.ar    1  UNL1        0.0004
     17 C           3.7577   32.0685    4.7993 C.ar    1  UNL1        0.0031
     18 C           4.0626   32.9579    5.8306 C.ar    1  UNL1        0.0368
     19 C           3.3244   32.9289    7.0155 C.ar    1  UNL1        0.1398
     20 O           3.5787   33.8635    7.9800 O.3     1  UNL1       -0.5053
     21 H           4.2922   34.4533    7.6880 H       1  UNL1        0.2922
@<TRIPOS>BOND
     1    12    13    2
     2    13     1    1
     3    13    14    1
     4     1     2    1
     5     2     3   ar
     6     2     7   ar
     7     3     4   ar
     8     4     5   ar
     9     5     6   ar
    10     6     7   ar
    11     7     8    1
    12     8     9    2
    13     8    10    1
    14    10    11    1
    15    14    15   ar
    16    14    19   ar
    17    15    16   ar
    18    16    17   ar
    19    17    18   ar
    20    18    19   ar
    21    19    20    1
    22    20    21    1
#	Name:			CHEMBL1542
#	Creating user name:	trannguyen
#	Creation time:		Tue Feb  8 18:26:14 2022


#	Modifying user name:	trannguyen
#	Modification time:	Tue Feb  8 18:26:14 2022

@<TRIPOS>MOLECULE
CHEMBL1542
 20 22 0 0 0
SMALL
GASTEIGER

@<TRIPOS>ATOM
      1 S           2.8182   32.5544    9.2833 S.3     1  UNL1       -0.0461
      2 C           3.0232   30.8895    9.8447 C.ar    1  UNL1        0.1324
      3 N           4.2736   30.4114   10.0344 N.ar    1  UNL1       -0.2157
      4 C           4.4157   29.1076   10.3543 C.ar    1  UNL1        0.2008
      5 N           3.4565   28.1963   10.5429 N.ar    1  UNL1       -0.2033
      6 C           2.2217   28.6936   10.3603 C.ar    1  UNL1        0.1832
      7 N           1.0586   27.9910   10.5140 N.ar    1  UNL1       -0.2050
      8 C           0.1039   28.8525   10.2419 C.ar    1  UNL1        0.1767
      9 N           0.6098   30.0695    9.8693 N.ar    1  UNL1       -0.3321
     10 H           0.0689   30.8831    9.5970 H       1  UNL1        0.1676
     11 C           1.9720   30.0062    9.9982 C.ar    1  UNL1        0.1183
     12 C           5.8682   33.1533    8.3501 C.3     1  UNL1        0.1326
     13 N           4.8344   32.7285    7.4348 N.ar    1  UNL1       -0.3007
     14 C           5.0549   32.5264    6.0965 C.ar    1  UNL1        0.1805
     15 N           3.9812   32.0869    5.4856 N.ar    1  UNL1       -0.2037
     16 C           3.0085   32.0282    6.4664 C.ar    1  UNL1        0.1961
     17 C           3.5071   32.4537    7.6892 C.ar    1  UNL1        0.1300
     18 N           1.6770   31.5774    6.1232 N.pl3   1  UNL1       -0.1649
     19 O           1.1425   32.0705    5.1224 O.2     1  UNL1       -0.1710
     20 O           1.1681   30.6963    6.8395 O.co2   1  UNL1       -0.7758
@<TRIPOS>UNITY_ATOM_ATTR
20 1
charge -1
@<TRIPOS>BOND
     1    12    13    1
     2    13    14   ar
     3    13    17   ar
     4    14    15   ar
     5    15    16   ar
     6    16    18    1
     7    16    17   ar
     8    18    19    2
     9    18    20    1
    10    17     1    1
    11     1     2    1
    12     2     3   ar
    13     2    11   ar
    14     3     4   ar
    15     4     5   ar
    16     5     6   ar
    17     6     7   ar
    18     6    11   ar
    19     7     8   ar
    20     8     9   ar
    21     9    10    1
    22     9    11   ar
#	Name:			CHEMBL1544
#	Creating user name:	trannguyen
#	Creation time:		Tue Feb  8 18:26:14 2022


#	Modifying user name:	trannguyen
#	Modification time:	Tue Feb  8 18:26:14 2022

@<TRIPOS>MOLECULE
CHEMBL1544
 27 28 0 0 0
SMALL
GASTEIGER

@<TRIPOS>ATOM
      1 C           3.2736   31.0416    8.8523 C.ar    1  UNL1       -0.0192
      2 C           4.5957   31.5066    8.8929 C.ar    1  UNL1        0.0047
      3 C           5.1366   32.2220    7.8161 C.ar    1  UNL1        0.0647
      4 I           7.1184   32.8828    7.9978 I       1  UNL1       -0.0393
      5 C           4.3452   32.5090    6.6924 C.ar    1  UNL1        0.1558
      6 C           3.0479   31.9802    6.6182 C.ar    1  UNL1        0.0647
      7 I           1.8177   32.2121    4.9334 I       1  UNL1       -0.0393
      8 C           2.5158   31.2623    7.6955 C.ar    1  UNL1        0.0047
      9 C           2.6741   30.3070   10.0318 C.3     1  UNL1        0.0533
     10 N           0.6680   28.7580   10.2686 N.3     1  UNL1       -0.3131
     11 CA          2.0428   28.9383    9.7161 C.3     1  UNL1        0.1553
     12 H1          0.1057   29.5631    9.9738 H       1  UNL1        0.1193
     13 H2          0.7209   28.8605   11.2885 H       1  UNL1        0.1193
     14 C           2.9175   27.7537   10.1542 C.2     1  UNL1        0.3283
     15 O           4.1379   27.6859   10.0329 O.2     1  UNL1       -0.2488
     16 OXT         2.1786   26.7306   10.6497 O.3     1  UNL1       -0.4793
     17 HXT         1.2332   27.0167   10.6527 H       1  UNL1        0.2951
     18 O           4.8193   33.3416    5.6967 O.3     1  UNL1       -0.4526
     19 C           5.4777   32.7068    4.6535 C.ar    1  UNL1        0.1460
     20 C           5.6685   31.3208    4.6103 C.ar    1  UNL1        0.0406
     21 C           6.3470   30.7303    3.5495 C.ar    1  UNL1        0.0402
     22 C           6.8312   31.5234    2.5145 C.ar    1  UNL1        0.1391
     23 O           7.4816   30.9222    1.4739 O.3     1  UNL1       -0.5051
     24 C           6.6460   32.9104    2.5437 C.ar    1  UNL1        0.0667
     25 I           7.3792   34.1360    1.0142 I       1  UNL1       -0.0393
     26 C           5.9605   33.5054    3.6117 C.ar    1  UNL1        0.0463
     27 H           7.4345   29.9584    1.5856 H       1  UNL1        0.2922
@<TRIPOS>BOND
     1    10    11    1
     2    10    12    1
     3    10    13    1
     4    11     9    1
     5    11    14    1
     6     9     1    1
     7     1     2   ar
     8     1     8   ar
     9     2     3   ar
    10     3     4    1
    11     3     5   ar
    12     5    18    1
    13     5     6   ar
    14    18    19    1
    15    19    20   ar
    16    19    26   ar
    17    20    21   ar
    18    21    22   ar
    19    22    23    1
    20    22    24   ar
    21    23    27    1
    22    24    25    1
    23    24    26   ar
    24     6     7    1
    25     6     8   ar
    26    14    15    2
    27    14    16    1
    28    16    17    1
#	Name:			CHEMBL154
#	Creating user name:	trannguyen
#	Creation time:		Tue Feb  8 18:26:14 2022


#	Modifying user name:	trannguyen
#	Modification time:	Tue Feb  8 18:26:14 2022

@<TRIPOS>MOLECULE
CHEMBL154
 18 19 0 0 0
SMALL
GASTEIGER

@<TRIPOS>ATOM
      1 C           6.7459   32.4617    9.1365 C.ar    1  UNL1        0.1387
      2 C           7.1296   31.3676    9.9116 C.ar    1  UNL1        0.0369
      3 C           6.2111   30.3642   10.2319 C.ar    1  UNL1        0.0031
      4 C           4.8868   30.4367    9.7744 C.ar    1  UNL1       -0.0001
      5 C           3.9449   29.4351   10.0714 C.ar    1  UNL1       -0.0037
      6 C           2.6231   29.5160    9.6011 C.ar    1  UNL1       -0.0120
      7 C           2.2502   30.6205    8.8247 C.ar    1  UNL1       -0.0037
      8 C           3.1745   31.6216    8.5262 C.ar    1  UNL1       -0.0002
      9 C           4.4937   31.5446    8.9925 C.ar    1  UNL1        0.0030
     10 C           5.4278   32.5497    8.6877 C.ar    1  UNL1        0.0369
     11 C           9.0765   32.9304    9.1098 C.3     1  UNL1        0.2525
     12 O           7.7410   33.3649    8.8806 O.3     1  UNL1       -0.4714
     13 C           1.6144   28.4339    9.9616 C.3     1  UNL1        0.1211
     14 C           0.2000   29.0201   10.0352 C.3     1  UNL1        0.0164
     15 C           1.9448   27.6705   11.2465 C.2     1  UNL1        0.3174
     16 O           1.9316   28.1771   12.3583 O.2     1  UNL1       -0.2499
     17 O           2.1809   26.3457   11.0905 O.3     1  UNL1       -0.4800
     18 H           2.1654   26.0325   10.1649 H       1  UNL1        0.2951
@<TRIPOS>BOND
     1    11    12    1
     2    12     1    1
     3     1     2   ar
     4     1    10   ar
     5     2     3   ar
     6     3     4   ar
     7     4     5   ar
     8     4     9   ar
     9     5     6   ar
    10     6     7   ar
    11    13    14    1
    12    13    15    1
    13    13     6    1
    14    15    16    2
    15    15    17    1
    16    17    18    1
    17     7     8   ar
    18     8     9   ar
    19     9    10   ar
#	Name:			CHEMBL15511
#	Creating user name:	trannguyen
#	Creation time:		Tue Feb  8 18:26:14 2022


#	Modifying user name:	trannguyen
#	Modification time:	Tue Feb  8 18:26:14 2022

@<TRIPOS>MOLECULE
CHEMBL15511
 27 30 0 0 0
SMALL
GASTEIGER

@<TRIPOS>ATOM
      1 C           5.5301   32.5143    4.6405 C.ar    1  UNL1        0.0772
      2 C           5.8430   32.3681    6.0116 C.ar    1  UNL1        0.0341
      3 C           4.8736   32.1716    7.0130 C.ar    1  UNL1        0.0643
      4 C           3.5374   32.0378    6.6124 C.ar    1  UNL1        0.0573
      5 C           3.1830   32.1154    5.2688 C.ar    1  UNL1        0.0355
      6 C           4.1653   32.3612    4.3108 C.ar    1  UNL1        0.1535
      7 F           3.7350   32.4689    3.0441 F       1  UNL1       -0.2029
      8 C           2.4872   31.8164    7.6329 C.ar    1  UNL1        0.2047
      9 O           1.2987   31.7482    7.3288 O.2     1  UNL1       -0.2862
     10 C           2.8982   31.6765    9.0456 C.ar    1  UNL1        0.1314
     11 C           4.2045   31.8202    9.3167 C.ar    1  UNL1        0.0855
     12 N           5.1968   32.1103    8.3975 N.ar    1  UNL1       -0.3276
     13 N           8.4095   33.2203    1.4118 N.3     1  UNL1       -0.2698
     14 C           8.0404   34.2597    2.3983 C.3     1  UNL1        0.0938
     15 C           6.6617   34.0692    3.0792 C.3     1  UNL1        0.1082
     16 N           6.5583   32.7268    3.7035 N.pl3   1  UNL1       -0.3029
     17 C           6.9089   31.6340    2.7649 C.3     1  UNL1        0.1082
     18 C           8.2636   31.9039    2.0671 C.3     1  UNL1        0.0938
     19 C           7.9025   32.2786   -0.8554 C.3     1  UNL1        0.0188
     20 C           7.6363   33.3726    0.1732 C.3     1  UNL1        0.0722
     21 C           1.9560   31.4183   10.1545 C.2     1  UNL1        0.3427
     22 O           2.1432   30.5722   11.0097 O.2     1  UNL1       -0.2449
     23 O           0.8610   32.2092   10.1495 O.3     1  UNL1       -0.4770
     24 H           0.8343   32.8613    9.4055 H       1  UNL1        0.2954
     25 C           6.5611   32.3555    8.9052 C.3     1  UNL1        0.0856
     26 C           6.9971   31.9332   10.2884 C.3     1  UNL1        0.0245
     27 C           7.5410   31.2187    9.0939 C.3     1  UNL1        0.0245
@<TRIPOS>BOND
     1    19    20    1
     2    20    13    1
     3    13    14    1
     4    13    18    1
     5    14    15    1
     6    15    16    1
     7    16     1    1
     8    16    17    1
     9     1     2   ar
    10     1     6   ar
    11     2     3   ar
    12     3     4   ar
    13     3    12   ar
    14     4     5   ar
    15     4     8   ar
    16     5     6   ar
    17     6     7    1
    18     8     9    2
    19     8    10   ar
    20    10    21    1
    21    10    11   ar
    22    21    22    2
    23    21    23    1
    24    23    24    1
    25    11    12   ar
    26    12    25    1
    27    25    26    1
    28    25    27    1
    29    26    27    1
    30    17    18    1
#	Name:			CHEMBL1554
#	Creating user name:	trannguyen
#	Creation time:		Tue Feb  8 18:26:14 2022


#	Modifying user name:	trannguyen
#	Modification time:	Tue Feb  8 18:26:14 2022

@<TRIPOS>MOLECULE
CHEMBL1554
 96 102 0 0 0
SMALL
GASTEIGER

@<TRIPOS>ATOM
      1 C           7.5143   31.7375    4.1582 C.3     1  UNL1        0.0377
      2 C           7.6870   32.5449    2.9035 C.ar    1  UNL1        0.0543
      3 C           8.0649   33.8247    2.8632 C.ar    1  UNL1        0.1621
      4 O           8.3366   34.4820    4.0466 O.2     1  UNL1       -0.4510
      5 C           9.3013   35.4605    3.9921 C.ar    1  UNL1        0.1589
      6 C           9.9217   35.7762    5.2152 C.ar    1  UNL1        0.0142
      7 C           9.6553   34.9779    6.4622 C.3     1  UNL1        0.0343
      8 C          10.8976   36.7678    5.2248 C.ar    1  UNL1       -0.0010
      9 C          11.2590   37.3986    4.0344 C.ar    1  UNL1        0.0059
     10 C          10.6951   37.0192    2.7944 C.ar    1  UNL1        0.0739
     11 C           9.6687   36.0528    2.7628 C.ar    1  UNL1        0.1198
     12 N           9.0784   35.6045    1.5532 N.ar    1  UNL1       -0.2389
     13 C           8.3258   34.5428    1.5762 C.ar    1  UNL1        0.1212
     14 C           7.7749   33.9142    0.3164 C.ar    1  UNL1        0.0899
     15 C           7.5848   32.5776    0.3294 C.ar    1  UNL1        0.0867
     16 N           7.3476   31.7387   -0.7787 N.pl3   1  UNL1       -0.3544
     17 C           7.5472   31.8241    1.6340 C.ar    1  UNL1        0.2076
     18 O           7.3355   30.6112    1.6107 O.2     1  UNL1       -0.2855
     19 H           6.7826   30.9495   -0.4250 H       1  UNL1        0.1424
     20 H           8.2334   31.2412   -0.9505 H       1  UNL1        0.1424
     21 C          11.2517   37.6714    1.5652 C.2     1  UNL1        0.2478
     22 O          11.1030   38.8756    1.3254 O.2     1  UNL1       -0.2701
     23 N          11.9854   36.8488    0.7299 N.am    1  UNL1       -0.2919
     24 H          11.8156   35.8512    0.7743 H       1  UNL1        0.1502
     25 C          12.6404   37.3419   -0.4946 C.3     1  UNL1        0.1892
     26 C          13.1858   36.1266   -1.2717 C.2     1  UNL1        0.2443
     27 O          13.9927   35.3581   -0.7474 O.2     1  UNL1       -0.2732
     28 N          12.6194   35.9215   -2.5149 N.am    1  UNL1       -0.2969
     29 C          13.0844   34.9433   -3.5289 C.3     1  UNL1        0.1487
     30 C          14.0993   35.7295   -4.4181 C.2     1  UNL1        0.2438
     31 O          14.8589   36.5834   -3.9450 O.2     1  UNL1       -0.2731
     32 N          14.0252   35.5719   -5.7911 N.am    1  UNL1       -0.2717
     33 C          13.5872   34.4120   -6.5523 C.3     1  UNL1        0.0939
     34 C          13.6703   34.8107   -8.0196 C.3     1  UNL1        0.0237
     35 C          14.6713   35.9615   -8.0249 C.3     1  UNL1        0.0310
     36 C          14.4473   36.6558   -6.6769 C.3     1  UNL1        0.1521
     37 C          13.2766   37.6745   -6.8041 C.2     1  UNL1        0.2441
     38 O          12.1893   37.2983   -7.2635 O.2     1  UNL1       -0.2731
     39 N          13.4585   39.0034   -6.4439 N.am    1  UNL1       -0.2682
     40 C          12.3236   39.8964   -6.6528 C.3     1  UNL1        0.1154
     41 C          14.5105   39.5043   -5.5460 C.3     1  UNL1        0.1794
     42 C          14.0194   39.8647   -4.1259 C.2     1  UNL1        0.2463
     43 O          13.0081   39.3306   -3.6709 O.2     1  UNL1       -0.2730
     44 N          14.7662   40.8271   -3.4304 N.am    1  UNL1       -0.2683
     45 C          16.1421   41.1467   -3.8005 C.3     1  UNL1        0.1154
     46 C          14.2830   41.4636   -2.1652 C.3     1  UNL1        0.1746
     47 C          14.2704   40.5498   -0.9285 C.2     1  UNL1        0.3352
     48 O          14.5161   40.9534    0.2046 O.2     1  UNL1       -0.2483
     49 O          13.8753   39.2930   -1.2243 O.3     1  UNL1       -0.4489
     50 C          13.7509   38.3636   -0.1336 C.3     1  UNL1        0.1956
     51 C          15.1471   37.8112    0.1445 C.3     1  UNL1        0.0497
     52 H          12.0768   36.6982   -2.8839 H       1  UNL1        0.1499
     53 C          13.5252   33.5780   -2.9400 C.3     1  UNL1        0.0269
     54 C          14.9481   33.1498   -3.2893 C.3     1  UNL1        0.0022
     55 C          12.5756   32.4622   -3.4134 C.3     1  UNL1        0.0022
     56 C          13.0068   42.3518   -2.2899 C.3     1  UNL1        0.0292
     57 C          13.2494   43.7791   -1.7715 C.3     1  UNL1        0.0023
     58 C          11.7550   41.8142   -1.6036 C.3     1  UNL1        0.0023
     59 C           7.4776   34.7688   -0.9040 C.2     1  UNL1        0.2491
     60 O           6.9638   34.2674   -1.9006 O.2     1  UNL1       -0.2700
     61 N           7.9046   36.0790   -0.9024 N.am    1  UNL1       -0.2919
     62 H           8.5443   36.3383   -0.1505 H       1  UNL1        0.1502
     63 C           7.8135   37.0136   -2.0653 C.3     1  UNL1        0.1892
     64 C           8.4070   36.2526   -3.2819 C.2     1  UNL1        0.2443
     65 O           9.5936   35.9290   -3.3387 O.2     1  UNL1       -0.2732
     66 N           7.4688   35.8055   -4.2134 N.am    1  UNL1       -0.2969
     67 C           7.8843   35.1562   -5.4959 C.3     1  UNL1        0.1487
     68 C           8.5101   36.3182   -6.3550 C.2     1  UNL1        0.2438
     69 O           8.7716   37.4151   -5.8359 O.2     1  UNL1       -0.2731
     70 N           8.5862   36.2465   -7.7291 N.am    1  UNL1       -0.2717
     71 C           8.6100   35.1190   -8.6390 C.3     1  UNL1        0.0939
     72 C           8.5381   35.6902  -10.0489 C.3     1  UNL1        0.0237
     73 C           8.9788   37.1369   -9.8804 C.3     1  UNL1        0.0310
     74 C           8.5134   37.5022   -8.4723 C.3     1  UNL1        0.1521
     75 C           7.0169   37.9341   -8.4774 C.2     1  UNL1        0.2441
     76 O           6.1571   37.1323   -8.8712 O.2     1  UNL1       -0.2731
     77 N           6.6494   39.2067   -8.0656 N.am    1  UNL1       -0.2682
     78 C           5.2382   39.5574   -8.1565 C.3     1  UNL1        0.1154
     79 C           7.4968   40.1374   -7.3112 C.3     1  UNL1        0.1794
     80 C           7.2447   40.2910   -5.7826 C.2     1  UNL1        0.2463
     81 O           6.4425   39.5776   -5.1814 O.2     1  UNL1       -0.2730
     82 N           7.9849   41.3103   -5.1536 N.am    1  UNL1       -0.2683
     83 C           8.7030   42.3009   -5.9577 C.3     1  UNL1        0.1154
     84 C           7.7592   41.6592   -3.7182 C.3     1  UNL1        0.1746
     85 C           8.1078   40.6401   -2.5857 C.2     1  UNL1        0.3352
     86 O           8.3107   41.0356   -1.4379 O.2     1  UNL1       -0.2483
     87 O           8.1856   39.3269   -2.9400 O.3     1  UNL1       -0.4489
     88 C           8.5003   38.3981   -1.8473 C.3     1  UNL1        0.1956
     89 C          10.0171   38.3381   -1.6371 C.3     1  UNL1        0.0497
     90 H           6.6363   36.3817   -4.2783 H       1  UNL1        0.1499
     91 C           8.6011   33.7981   -5.2315 C.3     1  UNL1        0.0269
     92 C          10.0514   33.7009   -5.6855 C.3     1  UNL1        0.0022
     93 C           7.8592   32.6471   -5.9434 C.3     1  UNL1        0.0022
     94 C           6.4639   42.5168   -3.4820 C.3     1  UNL1        0.0292
     95 C           6.7430   43.9275   -2.9449 C.3     1  UNL1        0.0023
     96 C           5.4066   41.8744   -2.5864 C.3     1  UNL1        0.0023
@<TRIPOS>BOND
     1     1     2    1
     2     2     3   ar
     3     2    17   ar
     4     3     4   ar
     5     3    13    1
     6     4     5   ar
     7     5     6   ar
     8     5    11   ar
     9     6     7    1
    10     6     8   ar
    11     8     9   ar
    12     9    10   ar
    13    10    21    1
    14    10    11   ar
    15    21    22    2
    16    21    23   am
    17    23    24    1
    18    25    26    1
    19    25    50    1
    20    25    23    1
    21    26    28   am
    22    26    27    2
    23    28    29    1
    24    28    52    1
    25    29    30    1
    26    29    53    1
    27    53    54    1
    28    53    55    1
    29    30    32   am
    30    30    31    2
    31    32    33    1
    32    32    36    1
    33    33    34    1
    34    34    35    1
    35    35    36    1
    36    36    37    1
    37    37    39   am
    38    37    38    2
    39    39    41    1
    40    39    40    1
    41    41    42    1
    42    42    44   am
    43    42    43    2
    44    44    46    1
    45    44    45    1
    46    46    47    1
    47    46    56    1
    48    56    57    1
    49    56    58    1
    50    47    49    1
    51    47    48    2
    52    49    50    1
    53    50    51    1
    54    11    12   ar
    55    12    13   ar
    56    13    14   ar
    57    14    59    1
    58    14    15   ar
    59    59    60    2
    60    59    61   am
    61    61    62    1
    62    63    64    1
    63    63    88    1
    64    63    61    1
    65    64    66   am
    66    64    65    2
    67    66    67    1
    68    66    90    1
    69    67    68    1
    70    67    91    1
    71    91    92    1
    72    91    93    1
    73    68    70   am
    74    68    69    2
    75    70    71    1
    76    70    74    1
    77    71    72    1
    78    72    73    1
    79    73    74    1
    80    74    75    1
    81    75    77   am
    82    75    76    2
    83    77    79    1
    84    77    78    1
    85    79    80    1
    86    80    82   am
    87    80    81    2
    88    82    84    1
    89    82    83    1
    90    84    85    1
    91    84    94    1
    92    94    95    1
    93    94    96    1
    94    85    87    1
    95    85    86    2
    96    87    88    1
    97    88    89    1
    98    15    16    1
    99    15    17   ar
   100    16    19    1
   101    16    20    1
   102    17    18    2
#	Name:			CHEMBL1560
#	Creating user name:	trannguyen
#	Creation time:		Tue Feb  8 18:26:14 2022


#	Modifying user name:	trannguyen
#	Modification time:	Tue Feb  8 18:26:14 2022

@<TRIPOS>MOLECULE
CHEMBL1560
 16 16 0 0 0
SMALL
GASTEIGER

@<TRIPOS>ATOM
      1 C           2.0055   30.8133    9.5939 C.2     1  UNL1        0.2264
      2 O           0.8120   30.5503    9.4183 O.2     1  UNL1       -0.2748
      3 N           2.8487   29.8155   10.0182 N.am    1  UNL1       -0.2714
      4 C           4.2826   29.8950   10.2428 C.3     1  UNL1        0.0939
      5 C           4.7956   28.5482    9.7627 C.3     1  UNL1        0.0238
      6 C           3.6811   27.5811   10.1377 C.3     1  UNL1        0.0331
      7 C           2.3938   28.4167   10.0832 C.3     1  UNL1        0.1745
      8 C           1.4758   28.1321   11.2929 C.2     1  UNL1        0.3320
      9 O           1.8704   27.9170   12.4318 O.2     1  UNL1       -0.2485
     10 O           0.1604   28.0453   10.9798 O.3     1  UNL1       -0.4790
     11 H          -0.0079   28.1676   10.0124 H       1  UNL1        0.2951
     12 C           1.5544   33.2106   10.1281 C.3     1  UNL1        0.0105
     13 C           2.5274   32.2420    9.4540 C.3     1  UNL1        0.0872
     14 C           2.7290   32.5315    7.9566 C.3     1  UNL1        0.0625
     15 S           4.4772   32.5874    7.4529 S.3     1  UNL1       -0.1675
     16 H           4.7611   33.7714    8.0169 H       1  UNL1        0.1023
@<TRIPOS>BOND
     1    13    14    1
     2    13     1    1
     3    13    12    1
     4    14    15    1
     5    15    16    1
     6     1     2    2
     7     1     3   am
     8     3     4    1
     9     3     7    1
    10     4     5    1
    11     5     6    1
    12     6     7    1
    13     7     8    1
    14     8     9    2
    15     8    10    1
    16    10    11    1
#	Name:			CHEMBL1566249
#	Creating user name:	trannguyen
#	Creation time:		Tue Feb  8 18:26:14 2022


#	Modifying user name:	trannguyen
#	Modification time:	Tue Feb  8 18:26:14 2022

@<TRIPOS>MOLECULE
CHEMBL1566249
 32 34 0 0 0
SMALL
GASTEIGER

@<TRIPOS>ATOM
      1 C           5.6798   33.3664    9.0250 C.2     1  UNL1        0.1628
      2 C           5.5988   34.1494   10.1275 C.2     1  UNL1        0.1562
      3 N           6.8565   34.4910   10.7865 N.pl3   1  UNL1       -0.1814
      4 C           7.6835   35.4964   10.0507 C.3     1  UNL1        0.1394
      5 S           7.6793   33.0256   11.1784 S.O2    1  UNL1        0.0769
      6 O           6.7972   32.0885   11.8219 O.2     1  UNL1       -0.1497
      7 O           8.9961   33.3844   11.7539 O.2     1  UNL1       -0.1497
      8 C           7.9500   32.4510    9.5281 C.ar    1  UNL1        0.1283
      9 C           9.1720   31.8988    9.1644 C.ar    1  UNL1        0.0203
     10 C           9.4887   31.8300    7.8131 C.ar    1  UNL1        0.0014
     11 C           8.6635   32.4517    6.8714 C.ar    1  UNL1        0.0002
     12 C           7.4616   33.0427    7.2624 C.ar    1  UNL1        0.0044
     13 C           7.0184   32.9130    8.5784 C.ar    1  UNL1        0.0544
     14 C           4.3419   34.7327   10.7311 C.2     1  UNL1        0.2685
     15 O           4.2121   34.8411   11.9456 O.2     1  UNL1       -0.2683
     16 N           3.4182   35.0910    9.7743 N.am    1  UNL1       -0.2647
     17 H           3.5400   34.6581    8.8684 H       1  UNL1        0.1566
     18 C           2.1248   35.4826   10.0937 C.ar    1  UNL1        0.1344
     19 C           1.2165   34.4835   10.4263 C.ar    1  UNL1        0.0345
     20 C          -0.0999   34.8427   10.6906 C.ar    1  UNL1        0.0045
     21 C          -0.4767   36.1724   10.5505 C.ar    1  UNL1        0.0208
     22 C           0.4870   37.0892   10.1618 C.ar    1  UNL1        0.1003
     23 N           1.7800   36.7740    9.9411 N.ar    1  UNL1       -0.2290
     24 O           4.5288   32.9441    8.3447 O.2     1  UNL1       -0.4415
     25 C           3.9192   31.6567    8.5706 C.3     1  UNL1        0.3457
     26 C           2.5287   31.5475    7.9049 C.3     1  UNL1        0.0997
     27 O           3.7945   31.2032    9.9195 O.3     1  UNL1       -0.3825
     28 C           4.4018   30.0100   10.1101 C.2     1  UNL1        0.5143
     29 O           5.4944   29.7192    9.6964 O.2     1  UNL1       -0.2027
     30 O           3.7209   29.3014   11.0525 O.3     1  UNL1       -0.4180
     31 C           2.8042   27.3682    9.9753 C.3     1  UNL1        0.0514
     32 C           2.5010   28.7367   10.5518 C.3     1  UNL1        0.2122
@<TRIPOS>BOND
     1    31    32    1
     2    32    30    1
     3    30    28    1
     4    28    29    2
     5    28    27    1
     6    27    25    1
     7    25    26    1
     8    25    24    1
     9    24     1    1
    10     1     2    2
    11     1    13    1
    12     2    14    1
    13     2     3    1
    14    14    15    2
    15    14    16   am
    16    16    18    1
    17    16    17    1
    18    18    19   ar
    19    18    23   ar
    20    19    20   ar
    21    20    21   ar
    22    21    22   ar
    23    22    23   ar
    24     3     4    1
    25     3     5    1
    26     5     6    2
    27     5     7    2
    28     5     8    1
    29     8     9   ar
    30     8    13   ar
    31     9    10   ar
    32    10    11   ar
    33    11    12   ar
    34    12    13   ar
#	Name:			CHEMBL1566956
#	Creating user name:	trannguyen
#	Creation time:		Tue Feb  8 18:26:14 2022


#	Modifying user name:	trannguyen
#	Modification time:	Tue Feb  8 18:26:14 2022

@<TRIPOS>MOLECULE
CHEMBL1566956
 23 24 0 0 0
SMALL
GASTEIGER

@<TRIPOS>ATOM
      1 C           4.7303   31.7464    9.3062 C.ar    1  UNL1        0.1756
      2 C           4.9696   32.5405    8.1865 C.ar    1  UNL1        0.0448
      3 C           4.0690   32.5469    7.1277 C.ar    1  UNL1        0.0596
      4 C           2.9038   31.7852    7.1959 C.ar    1  UNL1        0.0448
      5 C           2.6248   31.0153    8.3285 C.ar    1  UNL1        0.1756
      6 C           3.5759   30.9335    9.3673 C.ar    1  UNL1        0.2061
      7 C           4.2902   33.3921    5.9276 C.2     1  UNL1        0.2460
      8 O           3.3877   34.0645    5.4748 O.2     1  UNL1       -0.2701
      9 N           5.5617   33.3121    5.3990 N.am    1  UNL1       -0.3011
     10 H           6.2422   32.7011    5.8266 H       1  UNL1        0.1497
     11 C           5.9865   34.0450    4.2125 C.3     1  UNL1        0.0876
     12 C           7.5042   34.2881    4.2788 C.3     1  UNL1        0.0224
     13 C           8.2727   32.9711    4.1256 C.3     1  UNL1        0.0188
     14 C           7.8321   32.2156    2.8720 C.3     1  UNL1        0.0687
     15 N           6.3861   32.0023    2.8152 N.3     1  UNL1       -0.2961
     16 C           5.6582   33.2811    2.9112 C.3     1  UNL1        0.0884
     17 H           6.0954   31.4239    3.6051 H       1  UNL1        0.1233
     18 C           6.8897   31.0977   10.0042 C.3     1  UNL1        0.2526
     19 O           5.7216   31.8687   10.2496 O.3     1  UNL1       -0.4683
     20 O           1.4474   30.3347    8.4748 O.3     1  UNL1       -0.4683
     21 C           0.3652   30.9676    9.1448 C.3     1  UNL1        0.2526
     22 O           3.4377   30.1377   10.4775 O.3     1  UNL1       -0.4654
     23 C           3.9057   28.7972   10.4038 C.3     1  UNL1        0.2528
@<TRIPOS>BOND
     1    18    19    1
     2    19     1    1
     3     1     2   ar
     4     1     6   ar
     5     2     3   ar
     6     3     7    1
     7     3     4   ar
     8     7     8    2
     9     7     9   am
    10     9    11    1
    11     9    10    1
    12    11    12    1
    13    11    16    1
    14    12    13    1
    15    13    14    1
    16    14    15    1
    17    15    16    1
    18    15    17    1
    19     4     5   ar
    20     5    20    1
    21     5     6   ar
    22    20    21    1
    23     6    22    1
    24    22    23    1
#	Name:			CHEMBL1566
#	Creating user name:	trannguyen
#	Creation time:		Tue Feb  8 18:26:14 2022


#	Modifying user name:	trannguyen
#	Modification time:	Tue Feb  8 18:26:14 2022

@<TRIPOS>MOLECULE
CHEMBL1566
 58 61 0 0 0
SMALL
GASTEIGER

@<TRIPOS>ATOM
      1 O           7.5315   32.5906    5.7533 O.3     1  UNL1       -0.3260
      2 C          10.5205   31.3072    8.9261 C.3     1  UNL1        0.0337
      3 C          10.3057   32.4482    7.8796 C.3     1  UNL1        0.1347
      4 O           9.6839   32.0128    6.6208 O.3     1  UNL1       -0.3297
      5 C           8.2680   31.6713    6.5969 C.3     1  UNL1        0.2656
      6 C           7.8217   31.7335    8.0347 C.3     1  UNL1        0.1953
      7 O           6.5141   31.2905    8.2075 O.3     1  UNL1       -0.3775
      8 C           8.1100   33.1530    8.6343 C.3     1  UNL1        0.1589
      9 O           7.7131   33.2001   10.0074 O.3     1  UNL1       -0.3803
     10 C           9.5680   33.5948    8.6029 C.3     1  UNL1        0.1116
     11 H           6.3179   31.8122    9.0034 H       1  UNL1        0.2106
     12 H           7.5476   34.1262   10.2626 H       1  UNL1        0.2105
     13 N           9.6808   35.0203    8.1466 N.3     1  UNL1       -0.2902
     14 H          10.2581   35.0279    7.3024 H       1  UNL1        0.1237
     15 C          10.2734   35.9400    9.1461 C.3     1  UNL1        0.1059
     16 C          10.4766   37.3060    8.5341 C.2     1  UNL1       -0.0119
     17 C           9.7132   38.4463    8.9189 C.2     1  UNL1        0.0107
     18 C           8.5301   38.3147    9.8217 C.3     1  UNL1        0.1600
     19 O           7.3565   38.8069    9.1703 O.3     1  UNL1       -0.3777
     20 C           8.2374   36.8922   10.3403 C.3     1  UNL1        0.1695
     21 O           7.5584   36.9751   11.6074 O.3     1  UNL1       -0.3792
     22 C           9.5702   36.1483   10.5261 C.3     1  UNL1        0.1583
     23 O           9.4131   34.9497   11.2854 O.3     1  UNL1       -0.3802
     24 H           7.4417   38.6054    8.2239 H       1  UNL1        0.2109
     25 H           6.7524   37.5069   11.4293 H       1  UNL1        0.2106
     26 H           8.9378   35.2362   12.0915 H       1  UNL1        0.2105
     27 C          10.1675   39.8272    8.5916 C.3     1  UNL1        0.1615
     28 O           9.3747   40.3651    7.5535 O.3     1  UNL1       -0.3775
     29 H           9.2838   39.6766    6.8756 H       1  UNL1        0.2109
     30 C           7.2615   32.3256    4.3216 C.3     1  UNL1        0.1766
     31 C           6.7583   33.6940    3.7928 C.3     1  UNL1        0.1765
     32 O           5.5555   34.1137    4.5636 O.3     1  UNL1       -0.3260
     33 C           4.5526   33.0811    4.8836 C.3     1  UNL1        0.2658
     34 C           4.7332   31.9995    3.8550 C.3     1  UNL1        0.1964
     35 O           3.7153   31.0416    3.7111 O.3     1  UNL1       -0.3775
     36 C           6.1182   31.3338    4.0058 C.3     1  UNL1        0.1719
     37 O           6.3385   30.4907    2.8657 O.3     1  UNL1       -0.3794
     38 H           2.8924   31.5424    3.8014 H       1  UNL1        0.2106
     39 H           5.4890   30.0032    2.7832 H       1  UNL1        0.2105
     40 C           6.6388   33.8197    2.2095 C.3     1  UNL1        0.1693
     41 O           7.4589   32.9696    1.4170 O.3     1  UNL1       -0.3794
     42 H           7.1645   32.9505    0.4925 H       1  UNL1        0.2105
     43 O           4.5908   32.5975    6.2278 O.3     1  UNL1       -0.3260
     44 C           3.5280   32.7633    7.2266 C.3     1  UNL1        0.1766
     45 C           3.8887   33.1391    8.7039 C.3     1  UNL1        0.1765
     46 O           3.8211   32.0796    9.6363 O.3     1  UNL1       -0.3261
     47 C           2.9431   31.0305    9.3726 C.3     1  UNL1        0.2623
     48 O           2.5465   30.6273   10.6614 O.3     1  UNL1       -0.3582
     49 C           1.7961   31.3859    8.4395 C.3     1  UNL1        0.1962
     50 O           0.9573   30.2484    8.2315 O.3     1  UNL1       -0.3775
     51 C           2.3483   31.8049    7.0733 C.3     1  UNL1        0.1719
     52 O           1.2492   32.4531    6.3781 O.3     1  UNL1       -0.3794
     53 H           3.4065   30.4394   11.0837 H       1  UNL1        0.2130
     54 H           0.1892   30.5936    7.7426 H       1  UNL1        0.2106
     55 H           1.4832   32.5332    5.4353 H       1  UNL1        0.2105
     56 C           3.1467   34.3326    9.4119 C.3     1  UNL1        0.1693
     57 O           3.4941   35.6617    9.0572 O.3     1  UNL1       -0.3794
     58 H           4.2327   36.0124    9.6000 H       1  UNL1        0.2105
@<TRIPOS>BOND
     1     2     3    1
     2     3     4    1
     3     3    10    1
     4     4     5    1
     5     5     1    1
     6     5     6    1
     7    30    31    1
     8    30    36    1
     9    30     1    1
    10    31    40    1
    11    31    32    1
    12    40    41    1
    13    41    42    1
    14    32    33    1
    15    33    43    1
    16    33    34    1
    17    44    45    1
    18    44    51    1
    19    44    43    1
    20    45    56    1
    21    45    46    1
    22    56    57    1
    23    57    58    1
    24    46    47    1
    25    47    49    1
    26    47    48    1
    27    48    53    1
    28    49    50    1
    29    49    51    1
    30    50    54    1
    31    51    52    1
    32    52    55    1
    33    34    35    1
    34    34    36    1
    35    35    38    1
    36    36    37    1
    37    37    39    1
    38     6     7    1
    39     6     8    1
    40     7    11    1
    41     8    10    1
    42     8     9    1
    43     9    12    1
    44    10    13    1
    45    13    15    1
    46    13    14    1
    47    15    16    1
    48    15    22    1
    49    16    17    2
    50    17    27    1
    51    17    18    1
    52    27    28    1
    53    28    29    1
    54    18    20    1
    55    18    19    1
    56    19    24    1
    57    20    21    1
    58    20    22    1
    59    21    25    1
    60    22    23    1
    61    23    26    1
#	Name:			CHEMBL1567463
#	Creating user name:	trannguyen
#	Creation time:		Tue Feb  8 18:26:14 2022


#	Modifying user name:	trannguyen
#	Modification time:	Tue Feb  8 18:26:14 2022

@<TRIPOS>MOLECULE
CHEMBL1567463
 18 17 0 0 0
SMALL
GASTEIGER

@<TRIPOS>ATOM
      1 P           3.6383   31.5213    9.2196 P.3     1  UNL1        0.2143
      2 O           5.1304   31.2886    8.9974 O.2     1  UNL1       -0.5172
      3 O           3.0601   32.8784    9.4505 O.3     1  UNL1       -0.4373
      4 O           2.9323   30.8954    7.9035 O.3     1  UNL1       -0.3077
      5 C           2.3002   31.7685    6.9971 C.3     1  UNL1        0.2097
      6 C           2.4340   31.3116    5.5394 C.3     1  UNL1        0.1423
      7 C           4.0633   33.1926    5.5472 C.3     1  UNL1        0.1711
      8 N           3.3781   32.1849    4.6456 N.4     1  UNL1        0.3125
      9 C           2.6086   32.8650    3.5449 C.3     1  UNL1        0.1711
     10 C           4.4959   31.3600    4.0219 C.3     1  UNL1        0.1711
     11 O           3.1188   30.4281   10.2815 O.3     1  UNL1       -0.3114
     12 C           1.7320   30.1128   10.3089 C.3     1  UNL1        0.1807
     13 C           1.3897   28.6101   10.2289 C.3     1  UNL1        0.1697
     14 O           0.2189   28.2268   10.9717 O.3     1  UNL1       -0.3794
     15 H          -0.1183   29.0573   11.3829 H       1  UNL1        0.2105
     16 C           2.5569   27.7153   10.6574 C.3     1  UNL1        0.1689
     17 O           2.1334   26.8582   11.7254 O.3     1  UNL1       -0.3794
     18 H           1.5704   27.4281   12.2852 H       1  UNL1        0.2105
@<TRIPOS>UNITY_ATOM_ATTR
8 1
charge 1
@<TRIPOS>BOND
     1     7     8    1
     2     8     9    1
     3     8    10    1
     4     8     6    1
     5     6     5    1
     6     5     4    1
     7     4     1    1
     8     1     2    2
     9     1     3    1
    10     1    11    1
    11    11    12    1
    12    13    14    1
    13    13    16    1
    14    13    12    1
    15    14    15    1
    16    16    17    1
    17    17    18    1
#	Name:			CHEMBL1568
#	Creating user name:	trannguyen
#	Creation time:		Tue Feb  8 18:26:14 2022


#	Modifying user name:	trannguyen
#	Modification time:	Tue Feb  8 18:26:14 2022

@<TRIPOS>MOLECULE
CHEMBL1568
 25 27 0 0 0
SMALL
GASTEIGER

@<TRIPOS>ATOM
      1 N           5.4921   33.1720    5.5596 N.pl3   1  UNL1       -0.3412
      2 C           5.1855   32.9576    6.8974 C.ar    1  UNL1        0.1501
      3 N           6.0012   33.4930    7.8304 N.ar    1  UNL1       -0.1852
      4 C           5.7041   33.2898    9.1291 C.ar    1  UNL1        0.3127
      5 F           6.5446   33.8415   10.0213 F       1  UNL1       -0.1610
      6 N           4.6537   32.6249    9.6494 N.ar    1  UNL1       -0.1822
      7 C           3.8630   32.1212    8.6870 C.ar    1  UNL1        0.1711
      8 C           4.0543   32.2396    7.3209 C.ar    1  UNL1        0.1483
      9 N           3.0368   31.6239    6.6250 N.ar    1  UNL1       -0.2194
     10 C           2.2495   31.1309    7.5561 C.ar    1  UNL1        0.1816
     11 N           2.7009   31.4101    8.8245 N.ar    1  UNL1       -0.2694
     12 H           6.0801   33.9830    5.4222 H       1  UNL1        0.1438
     13 H           4.6979   33.0551    4.9389 H       1  UNL1        0.1438
     14 C1*         1.9885   31.0580   10.0372 C.3     1  UNL1        0.2371
     15 O4*         2.6984   29.9885   10.7054 O.3     1  UNL1       -0.3309
     16 C4*         1.7867   28.8819   10.8551 C.3     1  UNL1        0.1757
     17 C3*         0.6331   29.1062    9.8792 C.3     1  UNL1        0.1713
     18 O3*        -0.5926   28.5116   10.2951 O.3     1  UNL1       -0.3794
     19 C2*         0.5288   30.6182    9.8969 C.3     1  UNL1        0.1895
     20 O2*        -0.1722   31.1489    8.7828 O.3     1  UNL1       -0.3779
     21 H3*        -0.4149   27.5498   10.3546 H       1  UNL1        0.2105
     22 H2*        -1.0028   30.6371    8.7211 H       1  UNL1        0.2106
     23 C5*         2.5097   27.5579   10.6302 C.3     1  UNL1        0.1693
     24 O5*         2.1772   26.6298   11.6577 O.3     1  UNL1       -0.3794
     25 H5*         2.6287   25.7963   11.4280 H       1  UNL1        0.2105
@<TRIPOS>BOND
     1     1     2    1
     2     1    12    1
     3     1    13    1
     4     2     3   ar
     5     2     8   ar
     6     3     4   ar
     7     4     5    1
     8     4     6   ar
     9     6     7   ar
    10     7     8   ar
    11     7    11   ar
    12     8     9   ar
    13     9    10   ar
    14    10    11   ar
    15    14    15    1
    16    14    19    1
    17    14    11    1
    18    15    16    1
    19    16    23    1
    20    16    17    1
    21    23    24    1
    22    24    25    1
    23    17    19    1
    24    17    18    1
    25    18    21    1
    26    19    20    1
    27    20    22    1
#	Name:			CHEMBL157101
#	Creating user name:	trannguyen
#	Creation time:		Tue Feb  8 18:26:14 2022


#	Modifying user name:	trannguyen
#	Modification time:	Tue Feb  8 18:26:14 2022

@<TRIPOS>MOLECULE
CHEMBL157101
 36 40 0 0 0
SMALL
GASTEIGER

@<TRIPOS>ATOM
      1 C           6.5188   31.9564    6.0380 C.3     1  UNL1        0.1909
      2 C           7.8341   31.8773    6.7621 C.3     1  UNL1        0.1783
      3 O           7.4560   31.7681    8.1390 O.3     1  UNL1       -0.3267
      4 C           6.1546   32.3948    8.2452 C.3     1  UNL1        0.2296
      5 O           5.6971   32.7118    6.9275 O.3     1  UNL1       -0.3255
      6 C           5.1951   31.4027    8.9219 C.ar    1  UNL1        0.0409
      7 C           5.7436   30.2751    9.5761 C.ar    1  UNL1        0.0022
      8 C           4.9355   29.3241   10.2053 C.ar    1  UNL1        0.0113
      9 C           3.5563   29.4800   10.1975 C.ar    1  UNL1        0.0585
     10 CL          2.5574   28.3123   10.9692 Cl      1  UNL1       -0.0822
     11 C           2.9822   30.5842    9.5793 C.ar    1  UNL1        0.0226
     12 C           3.7916   31.5475    8.9589 C.ar    1  UNL1        0.0591
     13 CL          2.9513   32.9079    8.2973 Cl      1  UNL1       -0.0824
     14 C           6.5823   32.6709    4.7039 C.3     1  UNL1        0.2374
     15 O           6.6637   31.7420    3.6276 O.3     1  UNL1       -0.4727
     16 C           7.7020   33.2349   -0.1561 C.ar    1  UNL1        0.0481
     17 C           8.0587   31.9503    0.2754 C.ar    1  UNL1        0.0176
     18 C           7.7034   31.4881    1.5488 C.ar    1  UNL1        0.0382
     19 C           6.9806   32.3017    2.4168 C.ar    1  UNL1        0.1388
     20 C           6.6339   33.5885    2.0053 C.ar    1  UNL1        0.0382
     21 C           6.9929   34.0457    0.7368 C.ar    1  UNL1        0.0176
     22 C           6.7210   34.1058   -6.2957 C.3     1  UNL1        0.0948
     23 C           7.0690   35.1333   -5.2538 C.2     1  UNL1        0.2262
     24 O           6.7396   36.3039   -5.4055 O.2     1  UNL1       -0.2749
     25 N           7.7353   34.6828   -4.1293 N.am    1  UNL1       -0.2760
     26 C           8.0710   35.6250   -3.0538 C.3     1  UNL1        0.1148
     27 C           7.5396   35.1316   -1.6998 C.3     1  UNL1        0.1123
     28 N           8.0158   33.7569   -1.4231 N.pl3   1  UNL1       -0.3041
     29 C           7.6991   32.7890   -2.5022 C.3     1  UNL1        0.1123
     30 C           8.1693   33.3033   -3.8685 C.3     1  UNL1        0.1148
     31 C           6.2601   33.6883    9.0848 C.3     1  UNL1        0.1682
     32 N           7.4399   33.7319    9.9359 N.ar    1  UNL1       -0.3025
     33 C           7.6298   33.0382   11.0999 C.ar    1  UNL1        0.0982
     34 C           8.8796   33.4108   11.5367 C.ar    1  UNL1        0.1193
     35 N           9.4457   34.3124   10.6732 N.ar    1  UNL1       -0.2223
     36 C           8.5538   34.4941    9.7250 C.ar    1  UNL1        0.1788
@<TRIPOS>BOND
     1    22    23    1
     2    23    24    2
     3    23    25   am
     4    25    26    1
     5    25    30    1
     6    26    27    1
     7    27    28    1
     8    28    16    1
     9    28    29    1
    10    16    17   ar
    11    16    21   ar
    12    17    18   ar
    13    18    19   ar
    14    19    15    1
    15    19    20   ar
    16    15    14    1
    17    14     1    1
    18     1     2    1
    19     1     5    1
    20     2     3    1
    21     3     4    1
    22     4    31    1
    23     4     6    1
    24     4     5    1
    25    31    32    1
    26    32    33   ar
    27    32    36   ar
    28    33    34   ar
    29    34    35   ar
    30    35    36   ar
    31     6     7   ar
    32     6    12   ar
    33     7     8   ar
    34     8     9   ar
    35     9    10    1
    36     9    11   ar
    37    11    12   ar
    38    12    13    1
    39    20    21   ar
    40    29    30    1
#	Name:			CHEMBL157138
#	Creating user name:	trannguyen
#	Creation time:		Tue Feb  8 18:26:14 2022


#	Modifying user name:	trannguyen
#	Modification time:	Tue Feb  8 18:26:14 2022

@<TRIPOS>MOLECULE
CHEMBL157138
 27 30 0 0 0
SMALL
GASTEIGER

@<TRIPOS>ATOM
      1 C           4.8208   33.1532    8.1455 C.3     1  UNL1        0.1110
      2 C           4.6143   31.7277    8.6179 C.2     1  UNL1       -0.0084
      3 C           3.3822   31.2099    8.8183 C.2     1  UNL1       -0.0100
      4 C           3.1566   29.8873    9.4452 C.ar    1  UNL1       -0.0018
      5 C           4.1131   28.9527    9.8707 C.ar    1  UNL1       -0.0002
      6 C           3.7314   27.7619   10.5076 C.ar    1  UNL1        0.0015
      7 C           2.3860   27.4524   10.7452 C.ar    1  UNL1        0.0170
      8 C           1.4423   28.3850   10.3133 C.ar    1  UNL1        0.0563
      9 N           0.0663   28.3936   10.3895 N.ar    1  UNL1       -0.3523
     10 H          -0.4917   27.6591   10.8023 H       1  UNL1        0.1660
     11 C          -0.4335   29.5425    9.8244 C.ar    1  UNL1        0.0681
     12 C           0.6369   30.2886    9.3859 C.ar    1  UNL1       -0.0021
     13 C           1.8114   29.5656    9.6830 C.ar    1  UNL1        0.0128
     14 C           0.6988   31.6022    8.7051 C.3     1  UNL1        0.0484
     15 C           2.1674   32.1009    8.4568 C.3     1  UNL1        0.0844
     16 N           2.3597   33.4876    8.9614 N.3     1  UNL1       -0.2671
     17 C           2.4260   33.5516   10.4250 C.3     1  UNL1        0.0899
     18 C           3.5669   34.0798    8.3361 C.3     1  UNL1        0.0968
     19 N           6.9416   32.8580    5.1127 N.am    1  UNL1       -0.2642
     20 C           6.6392   33.0687    6.4602 C.2     1  UNL1        0.3042
     21 O           7.5048   33.2281    7.3291 O.2     1  UNL1       -0.2526
     22 N           5.3073   33.0689    6.7705 N.am    1  UNL1       -0.2853
     23 H           4.6771   33.3908    6.0470 H       1  UNL1        0.1513
     24 C           8.8705   34.1545    4.1628 C.3     1  UNL1        0.0233
     25 C           8.3607   32.8361    4.7236 C.3     1  UNL1        0.0950
     26 C           5.9682   32.3988    4.1125 C.3     1  UNL1        0.0950
     27 C           6.3110   31.0367    3.5275 C.3     1  UNL1        0.0233
@<TRIPOS>BOND
     1    24    25    1
     2    25    19    1
     3    19    26    1
     4    19    20   am
     5    26    27    1
     6    20    21    2
     7    20    22   am
     8    22    23    1
     9     1     2    1
    10     1    18    1
    11     1    22    1
    12     2     3    2
    13     3     4    1
    14     3    15    1
    15     4     5   ar
    16     4    13   ar
    17     5     6   ar
    18     6     7   ar
    19     7     8   ar
    20     8     9   ar
    21     8    13   ar
    22     9    11   ar
    23     9    10    1
    24    11    12   ar
    25    12    13   ar
    26    12    14    1
    27    14    15    1
    28    15    16    1
    29    16    18    1
    30    16    17    1
#	Name:			CHEMBL1572
#	Creating user name:	trannguyen
#	Creation time:		Tue Feb  8 18:26:14 2022


#	Modifying user name:	trannguyen
#	Modification time:	Tue Feb  8 18:26:14 2022

@<TRIPOS>MOLECULE
CHEMBL1572
 44 46 0 0 0
SMALL
GASTEIGER

@<TRIPOS>ATOM
      1 C           5.8771   32.0286    4.2636 C.3     1  UNL1        0.0855
      2 C           4.4264   32.2397    3.8166 C.3     1  UNL1        0.0363
      3 C           3.4103   31.9127    4.8974 C.3     1  UNL1        0.0824
      4 N           2.0596   32.1157    4.3462 N.3     1  UNL1       -0.3202
      5 C           3.6755   32.7496    6.1617 C.3     1  UNL1        0.1620
      6 C           5.1304   32.5644    6.6478 C.3     1  UNL1        0.1673
      7 O           5.3367   33.4133    7.7930 O.3     1  UNL1       -0.3795
      8 C           6.2229   32.7895    5.5824 C.3     1  UNL1        0.1612
      9 H           1.9071   31.4677    3.5724 H       1  UNL1        0.1189
     10 H           1.9936   33.0481    3.9325 H       1  UNL1        0.1189
     11 H           4.5478   33.2669    8.3595 H       1  UNL1        0.2105
     12 N           6.7715   32.4434    3.1674 N.3     1  UNL1       -0.2965
     13 H           6.3419   33.1755    2.6003 H       1  UNL1        0.1233
     14 C           7.9829   31.9250    1.1267 C.3     1  UNL1        0.0185
     15 C           7.2780   31.3562    2.3435 C.3     1  UNL1        0.0686
     16 O           2.7071   32.5159    7.2159 O.3     1  UNL1       -0.3181
     17 C           2.4971   31.1443    7.6193 C.3     1  UNL1        0.3022
     18 O           3.6472   30.6552    8.2908 O.2     1  UNL1       -0.4547
     19 C           3.6413   30.2987    9.5968 C.2     1  UNL1        0.1303
     20 C           2.5004   29.9981   10.2496 C.2     1  UNL1        0.0093
     21 C           1.1670   30.1008    9.6060 C.3     1  UNL1        0.0508
     22 C           1.1148   30.9636    8.3365 C.3     1  UNL1        0.1264
     23 N           0.3475   32.2075    8.5814 N.3     1  UNL1       -0.3169
     24 H           0.3096   32.7316    7.7047 H       1  UNL1        0.1190
     25 H          -0.6102   31.9755    8.8364 H       1  UNL1        0.1190
     26 C           5.0168   30.1473   10.1989 C.3     1  UNL1        0.1298
     27 N           5.7577   31.4053   10.1894 N.3     1  UNL1       -0.3149
     28 H           5.9231   31.6752    9.2155 H       1  UNL1        0.1192
     29 H           6.6894   31.2309   10.5648 H       1  UNL1        0.1192
     30 O           7.4363   32.2639    6.1944 O.3     1  UNL1       -0.3272
     31 C           8.4199   33.2326    6.5485 C.3     1  UNL1        0.2646
     32 O           8.5136   33.3926    7.9587 O.3     1  UNL1       -0.3261
     33 C           8.9242   32.1822    8.5984 C.3     1  UNL1        0.1729
     34 C          10.3291   31.7397    8.1498 C.3     1  UNL1        0.1312
     35 C          10.6642   30.3972    8.8064 C.3     1  UNL1        0.0334
     36 O          11.2377   32.7467    8.6365 O.3     1  UNL1       -0.3829
     37 C          10.4194   31.6446    6.5938 C.3     1  UNL1        0.1136
     38 C           9.8025   32.8975    5.9334 C.3     1  UNL1        0.1836
     39 O           9.7368   32.7221    4.5029 O.3     1  UNL1       -0.3783
     40 H          11.2350   32.7103    9.6069 H       1  UNL1        0.2104
     41 H           9.3056   33.5170    4.1440 H       1  UNL1        0.2106
     42 N          11.7730   31.3130    6.0340 N.3     1  UNL1       -0.2933
     43 C          12.6315   32.4761    5.8182 C.3     1  UNL1        0.0860
     44 H          11.6035   30.8761    5.1237 H       1  UNL1        0.1234
@<TRIPOS>BOND
     1    14    15    1
     2    15    12    1
     3    12    13    1
     4     1     2    1
     5     1     8    1
     6     1    12    1
     7     2     3    1
     8     3     4    1
     9     3     5    1
    10     4     9    1
    11     4    10    1
    12     5     6    1
    13     5    16    1
    14    16    17    1
    15    17    18    1
    16    17    22    1
    17    18    19    1
    18    19    26    1
    19    19    20    2
    20    26    27    1
    21    27    28    1
    22    27    29    1
    23    20    21    1
    24    21    22    1
    25    22    23    1
    26    23    24    1
    27    23    25    1
    28     6     7    1
    29     6     8    1
    30     7    11    1
    31     8    30    1
    32    30    31    1
    33    31    32    1
    34    31    38    1
    35    32    33    1
    36    33    34    1
    37    34    35    1
    38    34    36    1
    39    34    37    1
    40    36    40    1
    41    37    42    1
    42    37    38    1
    43    42    43    1
    44    42    44    1
    45    38    39    1
    46    39    41    1
#	Name:			CHEMBL157548
#	Creating user name:	trannguyen
#	Creation time:		Tue Feb  8 18:26:14 2022


#	Modifying user name:	trannguyen
#	Modification time:	Tue Feb  8 18:26:14 2022

@<TRIPOS>MOLECULE
CHEMBL157548
 27 31 0 0 0
SMALL
GASTEIGER

@<TRIPOS>ATOM
      1 C           3.6254   32.2658    6.4725 C.ar    1  UNL1        0.0771
      2 C           4.2494   31.5945    7.5493 C.ar    1  UNL1        0.0341
      3 C           3.5343   30.8489    8.5085 C.ar    1  UNL1        0.0643
      4 C           2.1359   30.7931    8.3802 C.ar    1  UNL1        0.0573
      5 C           1.4771   31.4827    7.3652 C.ar    1  UNL1        0.0355
      6 C           2.2178   32.2101    6.4404 C.ar    1  UNL1        0.1535
      7 F           1.5231   32.8416    5.4811 F       1  UNL1       -0.2029
      8 C           1.3435   29.9665    9.3195 C.ar    1  UNL1        0.2047
      9 O           0.1244   29.8472    9.2025 O.2     1  UNL1       -0.2862
     10 C           2.0584   29.2410   10.3860 C.ar    1  UNL1        0.1314
     11 C           3.3917   29.3762   10.4316 C.ar    1  UNL1        0.0855
     12 N           4.1626   30.1609    9.5897 N.ar    1  UNL1       -0.3276
     13 C           7.1871   31.3972    2.7286 C.3     1  UNL1        0.0897
     14 N           6.3831   31.6744    3.9109 N.3     1  UNL1       -0.2697
     15 C           4.9286   31.4152    3.6762 C.3     1  UNL1        0.0921
     16 C           4.2486   32.7515    4.0754 C.3     1  UNL1        0.0902
     17 C           5.2761   33.7412    3.5223 C.3     1  UNL1        0.0388
     18 C           6.4125   33.1117    4.3168 C.3     1  UNL1        0.0791
     19 C           5.8319   33.2166    5.7663 C.3     1  UNL1        0.1067
     20 N           4.3809   32.9730    5.5441 N.pl3   1  UNL1       -0.3046
     21 C           1.3913   28.3610   11.3673 C.2     1  UNL1        0.3427
     22 O           1.9173   27.9958   12.4047 O.2     1  UNL1       -0.2449
     23 O           0.1504   27.9637   11.0085 O.3     1  UNL1       -0.4770
     24 H          -0.1831   28.3837   10.1789 H       1  UNL1        0.2954
     25 C           5.6328   30.0852    9.7228 C.3     1  UNL1        0.0856
     26 C           6.4409   31.2691   10.1952 C.3     1  UNL1        0.0245
     27 C           6.3356   30.0554   11.0616 C.3     1  UNL1        0.0245
@<TRIPOS>BOND
     1    13    14    1
     2    14    15    1
     3    14    18    1
     4    15    16    1
     5    16    17    1
     6    16    20    1
     7    17    18    1
     8    18    19    1
     9    19    20    1
    10    20     1    1
    11     1     2   ar
    12     1     6   ar
    13     2     3   ar
    14     3     4   ar
    15     3    12   ar
    16     4     5   ar
    17     4     8   ar
    18     5     6   ar
    19     6     7    1
    20     8     9    2
    21     8    10   ar
    22    10    21    1
    23    10    11   ar
    24    21    22    2
    25    21    23    1
    26    23    24    1
    27    11    12   ar
    28    12    25    1
    29    25    26    1
    30    25    27    1
    31    26    27    1
#	Name:			CHEMBL15770
#	Creating user name:	trannguyen
#	Creation time:		Tue Feb  8 18:26:14 2022


#	Modifying user name:	trannguyen
#	Modification time:	Tue Feb  8 18:26:14 2022

@<TRIPOS>MOLECULE
CHEMBL15770
 26 28 0 0 0
SMALL
GASTEIGER

@<TRIPOS>ATOM
      1 C           4.8343   28.0020    9.6782 C.3     1  UNL1        0.0307
      2 C           4.1433   29.3209    9.8049 C.2     1  UNL1       -0.0253
      3 C           2.8229   29.5504    9.9981 C.2     1  UNL1       -0.0150
      4 C           2.6126   31.0071    9.9001 C.ar    1  UNL1       -0.0015
      5 C           1.4230   31.7218    9.9425 C.ar    1  UNL1        0.0293
      6 C           1.4757   33.0996    9.7791 C.ar    1  UNL1        0.1401
      7 F           0.3394   33.8080    9.8310 F       1  UNL1       -0.2042
      8 C           2.6847   33.7586    9.5430 C.ar    1  UNL1        0.0296
      9 C           3.8848   33.0385    9.4891 C.ar    1  UNL1        0.0023
     10 C           3.8422   31.6657    9.6915 C.ar    1  UNL1       -0.0005
     11 C           4.8635   30.6068    9.6983 C.2     1  UNL1       -0.0042
     12 C           6.2057   30.7000    9.6921 C.2     1  UNL1       -0.0003
     13 C           7.0636   31.8875    9.7146 C.ar    1  UNL1        0.0000
     14 C           7.3822   32.5072   10.9250 C.ar    1  UNL1        0.0005
     15 C           8.0637   33.7298   10.9323 C.ar    1  UNL1        0.0076
     16 C           8.4362   34.3455    9.7317 C.ar    1  UNL1        0.0438
     17 C           8.1575   33.7001    8.5218 C.ar    1  UNL1        0.0076
     18 C           7.4646   32.4835    8.5134 C.ar    1  UNL1        0.0005
     19 S           9.2968   35.9401    9.7451 S.3     1  UNL1        0.0002
     20 C           8.2293   36.8015   10.9289 C.3     1  UNL1        0.0961
     21 O          10.6820   35.7094   10.4506 O.3     1  UNL1       -0.1564
     22 C           1.7083   28.5743   10.1987 C.3     1  UNL1        0.1354
     23 C           1.9089   27.6795   11.4216 C.2     1  UNL1        0.3183
     24 O           1.8160   28.0468   12.5794 O.2     1  UNL1       -0.2499
     25 O           2.1676   26.3845   11.1179 O.3     1  UNL1       -0.4799
     26 H           2.2207   26.1811   10.1693 H       1  UNL1        0.2951
@<TRIPOS>BOND
     1     1     2    1
     2     2     3    2
     3     2    11    1
     4     3    22    1
     5     3     4    1
     6    22    23    1
     7    23    24    2
     8    23    25    1
     9    25    26    1
    10     4     5   ar
    11     4    10   ar
    12     5     6   ar
    13     6     7    1
    14     6     8   ar
    15     8     9   ar
    16     9    10   ar
    17    10    11    1
    18    11    12    2
    19    12    13    1
    20    13    14   ar
    21    13    18   ar
    22    14    15   ar
    23    15    16   ar
    24    16    19    1
    25    16    17   ar
    26    19    20    1
    27    19    21    1
    28    17    18   ar
#	Name:			CHEMBL1586
#	Creating user name:	trannguyen
#	Creation time:		Tue Feb  8 18:26:14 2022


#	Modifying user name:	trannguyen
#	Modification time:	Tue Feb  8 18:26:14 2022

@<TRIPOS>MOLECULE
CHEMBL1586
 31 34 0 0 0
SMALL
GASTEIGER

@<TRIPOS>ATOM
      1 C           5.1859   33.1640    5.8769 C.3     1  UNL1        0.0028
      2 C           5.5397   32.1260    6.9457 C.3     1  UNL1        0.0315
      3 C           7.0490   32.1862    7.2776 C.3     1  UNL1        0.0029
      4 C           7.0825   33.2323    8.3750 C.3     1  UNL1        0.0040
      5 C           8.3914   33.5428    9.1150 C.3     1  UNL1        0.0172
      6 C           9.5997   33.7227    8.1844 C.3     1  UNL1        0.0056
      7 C          10.8761   33.9500    8.9935 C.3     1  UNL1        0.0225
      8 C          10.7263   35.0866    9.9762 C.2     1  UNL1       -0.0367
      9 C          11.6133   36.0988    9.9601 C.2     1  UNL1        0.0339
     10 C          11.5000   37.2571   10.8672 C.2     1  UNL1        0.1948
     11 O          12.3440   38.1481   10.8712 O.2     1  UNL1       -0.2866
     12 C          10.3362   37.2986   11.7683 C.2     1  UNL1        0.0378
     13 C           9.4471   36.2961   11.7938 C.2     1  UNL1       -0.0185
     14 C           9.5168   35.0311   10.9369 C.3     1  UNL1        0.0489
     15 C           9.7782   33.8902   11.9544 C.3     1  UNL1        0.0097
     16 C           8.1864   34.7778   10.0843 C.3     1  UNL1        0.0982
     17 CL          7.8815   36.2882    9.0513 Cl      1  UNL1       -0.1131
     18 C           6.8802   34.5786   10.9467 C.3     1  UNL1        0.1249
     19 O           6.4728   35.7819   11.6058 O.3     1  UNL1       -0.3832
     20 C           5.6428   34.0482   10.1733 C.3     1  UNL1        0.0332
     21 C           5.9524   32.7837    9.3397 C.3     1  UNL1        0.0314
     22 C           6.3693   31.6442   10.3130 C.3     1  UNL1        0.0028
     23 C           4.8263   32.2629    8.3403 C.3     1  UNL1        0.1413
     24 O           4.4437   30.8992    8.6240 O.3     1  UNL1       -0.3797
     25 H           6.4052   36.4755   10.9191 H       1  UNL1        0.2104
     26 H           4.2218   30.7852    9.5617 H       1  UNL1        0.2108
     27 C           3.5331   33.1192    8.4065 C.2     1  UNL1        0.2038
     28 O           3.4660   34.2960    8.0439 O.2     1  UNL1       -0.2910
     29 C           2.3097   32.4683    9.0579 C.3     1  UNL1        0.2044
     30 O           2.5036   32.2126   10.4389 O.3     1  UNL1       -0.3749
     31 H           3.0914   32.9219   10.7680 H       1  UNL1        0.2110
@<TRIPOS>BOND
     1     2     3    1
     2     2    23    1
     3     2     1    1
     4     3     4    1
     5     4     5    1
     6     4    21    1
     7     5     6    1
     8     5    16    1
     9     6     7    1
    10     7     8    1
    11     8     9    2
    12     8    14    1
    13     9    10    1
    14    10    11    2
    15    10    12    1
    16    12    13    2
    17    13    14    1
    18    14    15    1
    19    14    16    1
    20    16    17    1
    21    16    18    1
    22    18    20    1
    23    18    19    1
    24    19    25    1
    25    20    21    1
    26    21    22    1
    27    21    23    1
    28    23    24    1
    29    23    27    1
    30    24    26    1
    31    27    28    2
    32    27    29    1
    33    29    30    1
    34    30    31    1
#	Name:			CHEMBL158
#	Creating user name:	trannguyen
#	Creation time:		Tue Feb  8 18:26:14 2022


#	Modifying user name:	trannguyen
#	Modification time:	Tue Feb  8 18:26:14 2022

@<TRIPOS>MOLECULE
CHEMBL158
 33 34 0 0 0
SMALL
GASTEIGER

@<TRIPOS>ATOM
      1 C           3.4827   34.6412    9.0907 C.2     1  UNL1        0.1904
      2 N           4.6832   35.1474    9.1676 N.2     1  UNL1       -0.0765
      3 C           2.3996   35.5684    9.4456 C.ar    1  UNL1        0.1150
      4 C           1.4361   35.3129   10.4093 C.ar    1  UNL1        0.0590
      5 S           0.3415   36.6208   10.5233 S.2     1  UNL1       -0.0514
      6 C           1.2025   37.4348    9.2845 C.ar    1  UNL1        0.1568
      7 N           0.7995   38.6281    8.8326 N.pl3   1  UNL1       -0.3375
      8 N           2.2687   36.8166    8.8359 N.ar    1  UNL1       -0.2227
      9 H           0.1393   39.1718    9.3754 H       1  UNL1        0.1442
     10 H           1.4313   39.1644    8.2515 H       1  UNL1        0.1442
     11 N           3.6014   32.2016    9.5483 N.am    1  UNL1       -0.2920
     12 C           3.1783   33.1834    8.6662 C.2     1  UNL1        0.2687
     13 O           2.6192   32.9173    7.6110 O.2     1  UNL1       -0.2683
     14 H           4.0821   32.5092   10.3926 H       1  UNL1        0.1502
     15 C           4.8684   28.6760    9.8290 C.3     1  UNL1        0.0258
     16 C           3.9324   29.7471   10.3538 C.3     1  UNL1        0.1277
     17 C           3.4009   30.7509    9.2803 C.3     1  UNL1        0.1709
     18 C           1.9871   30.1783    9.6645 C.2     1  UNL1        0.2652
     19 O           0.8421   30.3588    9.3639 O.2     1  UNL1       -0.2714
     20 N           2.5457   29.2907   10.5853 N.am    1  UNL1       -0.1387
     21 S           1.8700   27.8859   11.0793 S.O2    1  UNL1        0.1691
     22 O           2.3170   26.8159   10.2231 O.2     1  UNL1       -0.1264
     23 O           2.0199   27.7895   12.5153 O.2     1  UNL1       -0.1264
     24 O           0.2970   28.0642   10.8083 O.3     1  UNL1       -0.2376
     25 H          -0.1176   27.1779   10.8270 H       1  UNL1        0.2463
     26 O           5.6916   34.2496    8.7993 O.2     1  UNL1       -0.3737
     27 C           6.8232   34.3870    9.6718 C.3     1  UNL1        0.2486
     28 C           7.9559   33.4538    9.2243 C.3     1  UNL1        0.0582
     29 C           7.2968   35.8376    9.5244 C.3     1  UNL1        0.0582
     30 C           6.4356   34.1508   11.1435 C.2     1  UNL1        0.3530
     31 O           6.6208   33.1315   11.7937 O.2     1  UNL1       -0.2463
     32 O           5.8327   35.2071   11.7365 O.3     1  UNL1       -0.4778
     33 H           5.6842   34.9138   12.6585 H       1  UNL1        0.2952
@<TRIPOS>BOND
     1    15    16    1
     2    16    17    1
     3    16    20    1
     4    17    18    1
     5    17    11    1
     6    11    12   am
     7    11    14    1
     8    12    13    2
     9    12     1    1
    10     1     2    2
    11     1     3    1
    12     2    26    1
    13    26    27    1
    14    27    28    1
    15    27    29    1
    16    27    30    1
    17    30    31    2
    18    30    32    1
    19    32    33    1
    20     3     4   ar
    21     3     8   ar
    22     4     5   ar
    23     5     6   ar
    24     6     7    1
    25     6     8   ar
    26     7     9    1
    27     7    10    1
    28    18    19    2
    29    18    20   am
    30    20    21    1
    31    21    22    2
    32    21    23    2
    33    21    24    1
    34    24    25    1
#	Name:			CHEMBL1592
#	Creating user name:	trannguyen
#	Creation time:		Tue Feb  8 18:26:14 2022


#	Modifying user name:	trannguyen
#	Modification time:	Tue Feb  8 18:26:14 2022

@<TRIPOS>MOLECULE
CHEMBL1592
 34 36 0 0 0
SMALL
GASTEIGER

@<TRIPOS>ATOM
      1 CA          7.5039   31.6615    8.4681 C.3     1  UNL1        0.1321
      2 CB          8.6552   30.9606    7.7450 C.3     1  UNL1        0.0270
      3 C           7.5413   33.2049    8.1919 C.2     1  UNL1        0.2405
      4 O           7.1571   33.6612    7.1095 O.2     1  UNL1       -0.2734
      5 N           8.0016   34.0733    9.2035 N.am    1  UNL1       -0.2659
      6 C           7.8255   35.5055    8.9395 C.3     1  UNL1        0.1203
      7 C           8.2837   36.4748   10.0061 C.ar    1  UNL1       -0.0062
      8 C           8.0795   37.8535    9.8041 C.ar    1  UNL1       -0.0029
      9 C           8.5362   38.7975   10.7265 C.ar    1  UNL1       -0.0003
     10 C           9.2070   38.3758   11.8687 C.ar    1  UNL1       -0.0003
     11 C           9.4189   37.0108   12.0839 C.ar    1  UNL1       -0.0045
     12 C           8.9503   36.0535   11.1621 C.ar    1  UNL1       -0.0223
     13 C           9.2619   34.5909   11.3368 C.3     1  UNL1        0.0574
     14 CA          8.3121   33.6426   10.5813 C.3     1  UNL1        0.1791
     15 C           7.0516   33.3646   11.4160 C.2     1  UNL1        0.3324
     16 O           6.0451   34.0429   11.4013 O.2     1  UNL1       -0.2484
     17 OXT         7.1196   32.2672   12.1986 O.3     1  UNL1       -0.4790
     18 HXT         6.2548   32.2353   12.6609 H       1  UNL1        0.2951
     19 N           6.1616   31.0929    8.1656 N.3     1  UNL1       -0.2835
     20 H           5.8754   31.3553    7.2247 H       1  UNL1        0.1241
     21 C           5.0702   31.3957    9.1324 C.3     1  UNL1        0.1550
     22 C           4.8339   30.2500   10.1130 C.2     1  UNL1        0.3314
     23 O           5.6593   29.8694   10.9662 O.2     1  UNL1       -0.2486
     24 O           3.5020   29.8388   10.0482 O.3     1  UNL1       -0.4476
     25 C           1.7613   28.3214   10.9802 C.3     1  UNL1        0.0513
     26 C           3.2122   28.4961   10.5619 C.3     1  UNL1        0.2086
     27 C           3.6580   31.6990    8.5634 C.3     1  UNL1        0.0318
     28 C           3.3816   32.9357    7.7130 C.3     1  UNL1        0.0283
     29 C           3.0917   32.8045    6.2408 C.ar    1  UNL1       -0.0221
     30 C           2.9378   31.5031    5.7345 C.ar    1  UNL1       -0.0043
     31 C           2.6933   31.2834    4.3791 C.ar    1  UNL1       -0.0003
     32 C           2.6296   32.3608    3.5012 C.ar    1  UNL1       -0.0000
     33 C           2.7801   33.6565    3.9851 C.ar    1  UNL1       -0.0003
     34 C           2.9746   33.8784    5.3506 C.ar    1  UNL1       -0.0043
@<TRIPOS>BOND
     1    25    26    1
     2    26    24    1
     3    24    22    1
     4    22    23    2
     5    21    27    1
     6    21    19    1
     7    21    22    1
     8    27    28    1
     9    28    29    1
    10    29    30   ar
    11    29    34   ar
    12    30    31   ar
    13    31    32   ar
    14    32    33   ar
    15    33    34   ar
    16    19     1    1
    17    19    20    1
    18     1     2    1
    19     1     3    1
    20     3     4    2
    21     3     5   am
    22     5     6    1
    23     5    14    1
    24     6     7    1
    25     7     8   ar
    26     7    12   ar
    27     8     9   ar
    28     9    10   ar
    29    10    11   ar
    30    11    12   ar
    31    12    13    1
    32    13    14    1
    33    14    15    1
    34    15    16    2
    35    15    17    1
    36    17    18    1
#	Name:			CHEMBL1598608
#	Creating user name:	trannguyen
#	Creation time:		Tue Feb  8 18:26:14 2022


#	Modifying user name:	trannguyen
#	Modification time:	Tue Feb  8 18:26:14 2022

@<TRIPOS>MOLECULE
CHEMBL1598608
 25 28 0 0 0
SMALL
GASTEIGER

@<TRIPOS>ATOM
      1 C           0.8600   28.6372   10.5873 C.3     1  UNL1        0.1202
      2 N           2.2061   29.0980   10.2895 N.am    1  UNL1       -0.2512
      3 C           3.2340   28.1663   10.2192 C.2     1  UNL1        0.2740
      4 O           3.0849   26.9552   10.3747 O.2     1  UNL1       -0.2705
      5 C           4.6146   28.7736   10.0427 C.3     1  UNL1        0.2900
      6 O           4.6971   29.9557    9.2674 O.3     1  UNL1       -0.4642
      7 C           3.7318   30.8826    9.5776 C.ar    1  UNL1        0.1571
      8 C           3.9980   32.2417    9.3103 C.ar    1  UNL1        0.0893
      9 C           3.0085   33.1978    9.5873 C.ar    1  UNL1        0.0190
     10 C           1.7747   32.8036   10.0895 C.ar    1  UNL1        0.0593
     11 CL          0.5690   33.9863   10.4201 Cl      1  UNL1       -0.0822
     12 C           1.5005   31.4579   10.3250 C.ar    1  UNL1        0.0294
     13 C           2.4743   30.4815   10.0761 C.ar    1  UNL1        0.0891
     14 C           5.2886   32.7643    8.7552 C.2     1  UNL1        0.2489
     15 O           5.2932   33.3892    7.6971 O.2     1  UNL1       -0.2700
     16 N           6.4356   32.5238    9.4698 N.am    1  UNL1       -0.3010
     17 H           6.3691   31.8959   10.2641 H       1  UNL1        0.1497
     18 C           7.7515   32.9362    9.0077 C.3     1  UNL1        0.0878
     19 C           8.8886   31.9956    9.4901 C.3     1  UNL1        0.0919
     20 N           9.9944   32.7459   10.1460 N.3     1  UNL1       -0.2713
     21 C          10.5046   33.7685    9.2057 C.3     1  UNL1        0.0722
     22 C           9.4078   34.7623    8.7857 C.3     1  UNL1        0.0191
     23 C           8.0807   34.3751    9.4609 C.3     1  UNL1        0.0221
     24 C           8.3224   34.4003   10.9812 C.3     1  UNL1        0.0191
     25 C           9.4546   33.4263   11.3415 C.3     1  UNL1        0.0722
@<TRIPOS>BOND
     1     1     2    1
     2     2     3   am
     3     2    13    1
     4     3     4    2
     5     3     5    1
     6     5     6    1
     7     6     7    1
     8     7     8   ar
     9     7    13   ar
    10     8    14    1
    11     8     9   ar
    12    14    15    2
    13    14    16   am
    14    16    18    1
    15    16    17    1
    16    18    19    1
    17    18    23    1
    18    19    20    1
    19    20    21    1
    20    20    25    1
    21    21    22    1
    22    22    23    1
    23    23    24    1
    24    24    25    1
    25     9    10   ar
    26    10    11    1
    27    10    12   ar
    28    12    13   ar
#	Name:			CHEMBL159
#	Creating user name:	trannguyen
#	Creation time:		Tue Feb  8 18:26:14 2022


#	Modifying user name:	trannguyen
#	Modification time:	Tue Feb  8 18:26:14 2022

@<TRIPOS>MOLECULE
CHEMBL159
 62 70 0 0 0
SMALL
GASTEIGER

@<TRIPOS>ATOM
      1 C           9.3836   37.4515    6.3161 C.ar    1  UNL1        0.0262
      2 C           8.5801   36.5462    5.5452 C.ar    1  UNL1       -0.0034
      3 C           8.7234   35.1578    5.6715 C.ar    1  UNL1       -0.0066
      4 C           9.6738   34.6182    6.5439 C.ar    1  UNL1        0.0470
      5 C          10.4584   35.4506    7.3028 C.ar    1  UNL1        0.0508
      6 C          10.3564   36.8532    7.1738 C.ar    1  UNL1        0.1367
      7 N           9.6854   33.2390    6.5249 N.pl3   1  UNL1       -0.3043
      8 C          10.7433   32.3282    6.8780 C.3     1  UNL1        0.1122
      9 C           8.4970   32.8201    5.7770 C.3     1  UNL1        0.1163
     10 C           7.3500   32.4859    6.7850 C.3     1  UNL1        0.2316
     11 O           7.3335   31.0313    6.8907 O.3     1  UNL1       -0.3727
     12 C           5.9417   32.9899    6.3610 C.3     1  UNL1        0.2097
     13 C           5.7082   33.0261    4.8139 C.3     1  UNL1        0.0719
     14 C           5.6775   31.6095    4.2659 C.2     1  UNL1       -0.0250
     15 C           6.3626   31.2371    3.1794 C.2     1  UNL1       -0.0132
     16 C           7.2321   32.1571    2.3979 C.3     1  UNL1        0.0985
     17 N           7.0784   33.5909    2.7068 N.3     1  UNL1       -0.2695
     18 C           8.3315   34.2829    2.3863 C.3     1  UNL1        0.0728
     19 C           9.2108   34.0008    3.5909 C.3     1  UNL1        0.0244
     20 C           8.2253   34.0002    4.8037 C.3     1  UNL1        0.0547
     21 C           6.8247   33.9287    4.1450 C.3     1  UNL1        0.0703
     22 H           6.7812   30.8308    7.6661 H       1  UNL1        0.2111
     23 C           5.3514   42.3674    5.6291 C.3     1  UNL1        0.1030
     24 O           4.1129   42.6411    4.9508 O.3     1  UNL1       -0.3854
     25 C           5.8518   40.9765    5.1176 C.3     1  UNL1        0.0297
     26 C           7.3430   40.8151    5.4491 C.3     1  UNL1        0.0196
     27 C           8.0831   41.9021    4.6835 C.3     1  UNL1        0.0722
     28 N           7.8114   43.1925    5.3152 N.3     1  UNL1       -0.2704
     29 C           8.3770   43.3724    6.6737 C.3     1  UNL1        0.0769
     30 C           9.5764   42.4723    7.0702 C.3     1  UNL1        0.0449
     31 C           9.2854   41.2129    7.8780 C.ar    1  UNL1       -0.0071
     32 C           9.1900   39.8450    7.5106 C.ar    1  UNL1        0.0431
     33 N           8.8715   39.1615    8.6698 N.ar    1  UNL1       -0.3560
     34 H           8.7199   38.1633    8.7284 H       1  UNL1        0.1657
     35 C           8.8256   39.9991    9.7553 C.ar    1  UNL1        0.0561
     36 C           8.5778   39.7149   11.1022 C.ar    1  UNL1        0.0169
     37 C           8.6119   40.7812   12.0071 C.ar    1  UNL1        0.0015
     38 C           8.8783   42.0792   11.5805 C.ar    1  UNL1        0.0001
     39 C           9.1128   42.3429   10.2295 C.ar    1  UNL1        0.0012
     40 C           9.0868   41.2824    9.2982 C.ar    1  UNL1        0.0127
     41 C           9.2813   39.0592    6.1441 C.3     1  UNL1        0.1437
     42 C           7.9568   39.4139    5.2890 C.3     1  UNL1        0.0218
     43 C           6.3662   43.5015    5.2370 C.3     1  UNL1        0.0993
     44 H           3.5077   41.9012    5.1313 H       1  UNL1        0.2103
     45 C           3.5543   42.2237    7.5044 C.3     1  UNL1        0.0025
     46 C           5.0365   42.2965    7.1484 C.3     1  UNL1        0.0283
     47 C          10.5434   39.5078    5.3121 C.2     1  UNL1        0.3253
     48 O          11.5671   39.9519    5.8354 O.2     1  UNL1       -0.2494
     49 O          10.4235   39.3129    3.9663 O.3     1  UNL1       -0.4439
     50 C          11.3711   38.4545    3.3059 C.3     1  UNL1        0.2556
     51 O          11.1973   37.6760    7.8883 O.3     1  UNL1       -0.4717
     52 C          11.8283   37.0572    9.0165 C.3     1  UNL1        0.2525
     53 C           7.5657   33.0615    8.2024 C.2     1  UNL1        0.3466
     54 O           8.1321   32.4877    9.1601 O.2     1  UNL1       -0.2473
     55 O           6.9793   34.3037    8.3203 O.3     1  UNL1       -0.4427
     56 C           7.3394   35.1191    9.4416 C.3     1  UNL1        0.2557
     57 C           4.2889   33.6353    4.5182 C.3     1  UNL1        0.0089
     58 C           3.2263   32.6821    3.9609 C.3     1  UNL1        0.0005
     59 O           5.0516   32.0517    7.0246 O.3     1  UNL1       -0.4488
     60 C           3.9571   32.5146    7.6771 C.2     1  UNL1        0.3175
     61 C           2.9617   31.4089    7.9385 C.3     1  UNL1        0.1212
     62 O           3.7754   33.7052    7.9778 O.2     1  UNL1       -0.2501
@<TRIPOS>BOND
     1    45    46    1
     2    23    46    1
     3    23    24    1
     4    23    25    1
     5    23    43    1
     6    24    44    1
     7    25    26    1
     8    26    27    1
     9    26    42    1
    10    27    28    1
    11    28    29    1
    12    28    43    1
    13    29    30    1
    14    30    31    1
    15    31    32   ar
    16    31    40   ar
    17    32    33   ar
    18    32    41    1
    19    33    34    1
    20    33    35   ar
    21    35    36   ar
    22    35    40   ar
    23    36    37   ar
    24    37    38   ar
    25    38    39   ar
    26    39    40   ar
    27    41    42    1
    28    41     1    1
    29    41    47    1
    30    47    48    2
    31    47    49    1
    32    49    50    1
    33     1     2   ar
    34     1     6   ar
    35     2     3   ar
    36     3     4   ar
    37     3    20    1
    38     4     5   ar
    39     4     7    1
    40     5     6   ar
    41     6    51    1
    42    51    52    1
    43     7     9    1
    44     7     8    1
    45     9    10    1
    46     9    20    1
    47    10    12    1
    48    10    11    1
    49    10    53    1
    50    11    22    1
    51    53    54    2
    52    53    55    1
    53    55    56    1
    54    12    13    1
    55    12    59    1
    56    59    60    1
    57    60    61    1
    58    60    62    2
    59    13    14    1
    60    13    21    1
    61    13    57    1
    62    57    58    1
    63    14    15    2
    64    15    16    1
    65    16    17    1
    66    17    18    1
    67    17    21    1
    68    18    19    1
    69    20    19    1
    70    20    21    1
#	Name:			CHEMBL1601669
#	Creating user name:	trannguyen
#	Creation time:		Tue Feb  8 18:26:14 2022


#	Modifying user name:	trannguyen
#	Modification time:	Tue Feb  8 18:26:14 2022

@<TRIPOS>MOLECULE
CHEMBL1601669
 31 33 0 0 0
SMALL
GASTEIGER

@<TRIPOS>ATOM
      1 C           6.2818   32.1675   10.0190 C.2     1  UNL1       -0.0088
      2 C           7.2602   33.0486   10.3426 C.2     1  UNL1       -0.0446
      3 C           7.9166   32.9302   11.6980 C.3     1  UNL1        0.0220
      4 C           9.4400   33.0198   11.6884 C.3     1  UNL1        0.0044
      5 C          10.0401   33.6455   10.4330 C.3     1  UNL1        0.0006
      6 C           9.1858   34.7329    9.7681 C.3     1  UNL1        0.0034
      7 C           9.1400   35.9759   10.7059 C.3     1  UNL1        0.0003
      8 C           7.7000   34.2623    9.5348 C.3     1  UNL1        0.0183
      9 C           7.5819   34.1780    8.0102 C.3     1  UNL1        0.0040
     10 C           8.4532   35.3106    7.5056 C.3     1  UNL1        0.0003
     11 C           9.7254   35.2073    8.3512 C.3     1  UNL1        0.0003
     12 C           4.6656   29.3105    9.8624 C.2     1  UNL1       -0.0025
     13 C           3.8453   30.3438    9.5585 C.2     1  UNL1        0.0004
     14 C           4.2867   31.4393    8.6962 C.2     1  UNL1       -0.0215
     15 C           5.3737   32.2280    8.9018 C.2     1  UNL1       -0.0051
     16 C           3.3674   31.6841    7.5218 C.3     1  UNL1        0.0554
     17 C           1.9007   31.7986    7.9624 C.3     1  UNL1        0.1176
     18 O           1.0509   31.9068    6.8177 O.3     1  UNL1       -0.3840
     19 C           1.4627   30.5875    8.7906 C.3     1  UNL1        0.0633
     20 C           2.3887   30.3505    9.9817 C.3     1  UNL1        0.1348
     21 O           2.1746   31.3648   10.9557 O.3     1  UNL1       -0.3800
     22 H           1.1478   31.0932    6.2941 H       1  UNL1        0.2104
     23 H           1.2290   31.3872   11.1724 H       1  UNL1        0.2108
     24 C          10.8950   34.4233    7.6245 C.3     1  UNL1        0.0000
     25 C          12.1999   35.2364    7.7978 C.3     1  UNL1        0.0000
     26 C          10.6592   34.0569    6.1201 C.3     1  UNL1        0.0000
     27 C          10.1621   32.6228    5.8255 C.3     1  UNL1        0.0000
     28 C          10.7402   31.5584    6.7971 C.3     1  UNL1        0.0000
     29 C           9.7729   31.1713    7.9469 C.3     1  UNL1        0.0000
     30 C           8.4591   30.5722    7.4403 C.3     1  UNL1        0.0000
     31 C          10.4247   30.1928    8.9365 C.3     1  UNL1        0.0000
@<TRIPOS>BOND
     1    12    13    2
     2    13    14    1
     3    13    20    1
     4    14    15    2
     5    14    16    1
     6    15     1    1
     7     1     2    2
     8     2     3    1
     9     2     8    1
    10     3     4    1
    11     4     5    1
    12     5     6    1
    13     6     8    1
    14     6    11    1
    15     6     7    1
    16     8     9    1
    17     9    10    1
    18    10    11    1
    19    11    24    1
    20    24    26    1
    21    24    25    1
    22    26    27    1
    23    27    28    1
    24    28    29    1
    25    29    30    1
    26    29    31    1
    27    16    17    1
    28    17    19    1
    29    17    18    1
    30    18    22    1
    31    19    20    1
    32    20    21    1
    33    21    23    1
#	Name:			CHEMBL16068
#	Creating user name:	trannguyen
#	Creation time:		Tue Feb  8 18:26:14 2022


#	Modifying user name:	trannguyen
#	Modification time:	Tue Feb  8 18:26:14 2022

@<TRIPOS>MOLECULE
CHEMBL16068
 7 7 0 0 0
SMALL
GASTEIGER

@<TRIPOS>ATOM
      1 BR          0.8657   31.1982    9.1168 Br      1  UNL1       -0.0490
      2 C           2.1125   29.8504    9.5682 C.ar    1  UNL1        0.0346
      3 C           3.4761   30.1408    9.5654 C.ar    1  UNL1        0.0067
      4 C           4.3956   29.1431    9.8924 C.ar    1  UNL1        0.0005
      5 C           3.9488   27.8626   10.2218 C.ar    1  UNL1        0.0000
      6 C           2.5828   27.5780   10.2266 C.ar    1  UNL1        0.0005
      7 C           1.6608   28.5732    9.8988 C.ar    1  UNL1        0.0067
@<TRIPOS>BOND
     1     1     2    1
     2     2     3   ar
     3     2     7   ar
     4     3     4   ar
     5     4     5   ar
     6     5     6   ar
     7     6     7   ar
#	Name:			CHEMBL16073
#	Creating user name:	trannguyen
#	Creation time:		Tue Feb  8 18:26:14 2022


#	Modifying user name:	trannguyen
#	Modification time:	Tue Feb  8 18:26:14 2022

@<TRIPOS>MOLECULE
CHEMBL16073
 14 14 0 0 0
SMALL
GASTEIGER

@<TRIPOS>ATOM
      1 C           2.5946   29.8866   10.1335 C.ar    1  UNL1        0.1386
      2 C           3.6251   30.5873    9.5135 C.ar    1  UNL1        0.0382
      3 C           3.3564   31.4258    8.4257 C.ar    1  UNL1        0.0178
      4 C           2.0567   31.5917    7.9501 C.ar    1  UNL1        0.0505
      5 C           1.0091   30.9668    8.6353 C.ar    1  UNL1        0.0178
      6 C           1.2813   30.1141    9.7167 C.ar    1  UNL1        0.0382
      7 N           1.7519   32.3588    6.8031 N.am    1  UNL1       -0.2839
      8 C           1.9754   31.9608    5.4904 C.2     1  UNL1        0.2266
      9 C           1.4958   32.9753    4.4837 C.3     1  UNL1        0.0949
     10 O           2.4502   30.8984    5.1177 O.2     1  UNL1       -0.2748
     11 H           1.1927   33.1885    6.9457 H       1  UNL1        0.1549
     12 O           2.7560   28.9968   11.1632 O.3     1  UNL1       -0.4755
     13 C           3.0041   27.0095    9.8320 C.3     1  UNL1        0.0512
     14 C           2.2166   27.6885   10.9411 C.3     1  UNL1        0.2055
@<TRIPOS>BOND
     1    13    14    1
     2    14    12    1
     3    12     1    1
     4     1     2   ar
     5     1     6   ar
     6     2     3   ar
     7     3     4   ar
     8     4     7    1
     9     4     5   ar
    10     7     8   am
    11     7    11    1
    12     8     9    1
    13     8    10    2
    14     5     6   ar
#	Name:			CHEMBL160
#	Creating user name:	trannguyen
#	Creation time:		Tue Feb  8 18:26:14 2022


#	Modifying user name:	trannguyen
#	Modification time:	Tue Feb  8 18:26:14 2022

@<TRIPOS>MOLECULE
CHEMBL160
 90 90 0 0 0
SMALL
GASTEIGER

@<TRIPOS>ATOM
      1 C           9.7854   35.1683   -3.5945 C.3     1  UNL1        0.1789
      2 C           9.6174   34.4392   -5.0435 C.2     1  UNL1        0.2433
      3 O          10.2290   33.4305   -5.3566 O.2     1  UNL1       -0.2732
      4 N           8.6666   35.0298   -5.8791 N.am    1  UNL1       -0.2969
      5 C           8.2601   34.6105   -7.2479 C.3     1  UNL1        0.1488
      6 C           7.0835   35.5519   -7.6234 C.2     1  UNL1        0.2439
      7 O           6.3621   36.0085   -6.7273 O.2     1  UNL1       -0.2731
      8 N           6.8281   35.8698   -8.9577 N.am    1  UNL1       -0.2682
      9 C           7.7500   35.5691  -10.0514 C.3     1  UNL1        0.1154
     10 C           5.9932   37.0643   -9.1414 C.3     1  UNL1        0.1794
     11 C           6.9772   38.2260   -9.0358 C.2     1  UNL1        0.2463
     12 O           7.7256   38.4458   -9.9962 O.2     1  UNL1       -0.2730
     13 N           7.1356   38.8887   -7.8238 N.am    1  UNL1       -0.2698
     14 C           6.1092   38.9678   -6.7883 C.3     1  UNL1        0.1153
     15 C           8.4085   39.5938   -7.5963 C.3     1  UNL1        0.1518
     16 C           9.1971   38.9185   -6.3507 C.2     1  UNL1        0.2409
     17 O           9.3132   37.7209   -6.2359 O.2     1  UNL1       -0.2733
     18 N           9.6692   39.8335   -5.4380 N.am    1  UNL1       -0.2970
     19 C          10.6552   39.4964   -4.3805 C.3     1  UNL1        0.1487
     20 C          10.5137   40.5624   -3.2562 C.2     1  UNL1        0.2439
     21 O          11.4998   41.2137   -2.8848 O.2     1  UNL1       -0.2731
     22 N           9.2597   40.8277   -2.7024 N.am    1  UNL1       -0.2699
     23 C           8.1971   39.8232   -2.6587 C.3     1  UNL1        0.1153
     24 C           9.1485   42.0021   -1.7829 C.3     1  UNL1        0.1518
     25 C           8.1311   41.9148   -0.6158 C.2     1  UNL1        0.2409
     26 O           6.9236   41.5815   -0.7887 O.2     1  UNL1       -0.2733
     27 N           8.6259   42.2858    0.6061 N.am    1  UNL1       -0.2970
     28 C           7.8615   42.5593    1.8365 C.3     1  UNL1        0.1486
     29 C           6.8439   41.4887    2.2065 C.3     1  UNL1        0.0312
     30 C           8.9703   42.8496    2.8876 C.2     1  UNL1        0.2406
     31 O          10.0171   43.3890    2.5001 O.2     1  UNL1       -0.2733
     32 N           8.7267   42.5666    4.2060 N.am    1  UNL1       -0.2970
     33 C           9.6072   42.8750    5.3442 C.3     1  UNL1        0.1489
     34 C          10.8532   43.7074    5.0640 C.3     1  UNL1        0.0312
     35 C           9.8958   41.6300    6.2296 C.2     1  UNL1        0.2439
     36 O           9.3035   41.4922    7.3038 O.2     1  UNL1       -0.2731
     37 N          10.9136   40.7578    5.8245 N.am    1  UNL1       -0.2699
     38 C          12.0865   41.0570    6.6498 C.3     1  UNL1        0.1153
     39 C          10.6518   39.2556    5.6759 C.3     1  UNL1        0.1520
     40 C          11.8895   38.5931    4.8292 C.2     1  UNL1        0.2441
     41 O          13.0635   38.9280    5.0426 O.2     1  UNL1       -0.2731
     42 N          11.6846   37.4912    3.9578 N.am    1  UNL1       -0.2699
     43 C          12.0773   36.2569    4.6461 C.3     1  UNL1        0.1153
     44 C          12.3896   37.5692    2.5864 C.3     1  UNL1        0.1520
     45 C          11.8462   36.4599    1.5077 C.2     1  UNL1        0.2441
     46 O          10.6416   36.1817    1.4834 O.2     1  UNL1       -0.2731
     47 N          12.7374   35.8410    0.5843 N.am    1  UNL1       -0.2699
     48 C          14.1598   35.8253    0.8575 C.3     1  UNL1        0.1153
     49 C          12.2248   34.9266   -0.5909 C.3     1  UNL1        0.1520
     50 C          11.5294   35.7403   -1.8071 C.2     1  UNL1        0.2441
     51 O          11.2181   36.9315   -1.6982 O.2     1  UNL1       -0.2731
     52 N          11.1876   35.0340   -2.9957 N.am    1  UNL1       -0.2680
     53 C          12.2222   35.2246   -4.0074 C.3     1  UNL1        0.1154
     54 H           8.5413   36.0279   -5.7395 H       1  UNL1        0.1499
     55 H           9.1435   40.6928   -5.2748 H       1  UNL1        0.1499
     56 H           9.5729   42.6619    0.6317 H       1  UNL1        0.1499
     57 H           7.8380   42.1620    4.4662 H       1  UNL1        0.1499
     58 C           8.6468   34.5638   -2.6910 C.3     1  UNL1        0.1377
     59 O           7.3713   34.5922   -3.3533 O.3     1  UNL1       -0.3822
     60 H           7.2015   35.4769   -3.7164 H       1  UNL1        0.2104
     61 C           8.4462   35.1594   -1.2690 C.3     1  UNL1        0.0334
     62 C           7.6227   36.4578   -1.2442 C.3     1  UNL1        0.0029
     63 C           7.7790   34.1908   -0.2620 C.3     1  UNL1        0.0282
     64 C           7.4444   31.9064    1.8424 C.3     1  UNL1        0.0303
     65 C           7.8754   31.7472    0.4184 C.2     1  UNL1       -0.0304
     66 C           7.9832   32.7207   -0.5004 C.2     1  UNL1       -0.0306
     67 C          12.1063   39.4217   -4.9806 C.3     1  UNL1        0.0269
     68 C          12.5589   40.7090   -5.6930 C.3     1  UNL1        0.0022
     69 C          13.1878   39.0255   -3.9612 C.3     1  UNL1        0.0022
     70 C          13.2624   33.7966   -1.0189 C.3     1  UNL1        0.0271
     71 C          12.6618   32.4855   -1.5449 C.3     1  UNL1        0.0022
     72 C          14.3712   34.2164   -2.0045 C.3     1  UNL1        0.0022
     73 C           7.8181   33.1494   -7.4430 C.3     1  UNL1        0.0290
     74 C           6.4989   32.7568   -6.7856 C.3     1  UNL1        0.0023
     75 C           8.2484   41.1333   -7.6435 C.3     1  UNL1        0.0292
     76 C           9.1729   41.9305   -8.6155 C.3     1  UNL1        0.0021
     77 C          10.0214   42.9996   -7.9214 C.3     1  UNL1        0.0001
     78 C          10.0772   41.0700   -9.5031 C.3     1  UNL1        0.0001
     79 C           8.8385   43.3275   -2.5504 C.3     1  UNL1        0.0292
     80 C           8.2386   43.2359   -3.9752 C.3     1  UNL1        0.0021
     81 C           6.7080   43.1143   -3.9132 C.3     1  UNL1        0.0001
     82 C           8.5541   44.4229   -4.8936 C.3     1  UNL1        0.0001
     83 C           9.2216   38.8998    5.1486 C.3     1  UNL1        0.0292
     84 C           8.4870   37.6227    5.7014 C.3     1  UNL1        0.0021
     85 C           8.2580   36.5707    4.6079 C.3     1  UNL1        0.0001
     86 C           9.1551   36.9350    6.9024 C.3     1  UNL1        0.0001
     87 C          12.3601   39.0208    2.0069 C.3     1  UNL1        0.0292
     88 C          13.6082   39.5307    1.2524 C.3     1  UNL1        0.0021
     89 C          13.3807   39.5173   -0.2641 C.3     1  UNL1        0.0001
     90 C          14.0409   40.9501    1.6271 C.3     1  UNL1        0.0001
@<TRIPOS>BOND
     1    64    65    1
     2    65    66    2
     3    66    63    1
     4    63    61    1
     5    61    62    1
     6    61    58    1
     7    58    59    1
     8    59    60    1
     9     1     2    1
    10     1    52    1
    11     1    58    1
    12     2     3    2
    13     2     4   am
    14     4     5    1
    15     4    54    1
    16     5    73    1
    17     5     6    1
    18    73    74    1
    19     6     7    2
    20     6     8   am
    21     8     9    1
    22     8    10    1
    23    10    11    1
    24    11    12    2
    25    11    13   am
    26    13    14    1
    27    13    15    1
    28    15    75    1
    29    15    16    1
    30    75    76    1
    31    76    77    1
    32    76    78    1
    33    16    17    2
    34    16    18   am
    35    18    19    1
    36    18    55    1
    37    19    67    1
    38    19    20    1
    39    67    68    1
    40    67    69    1
    41    20    21    2
    42    20    22   am
    43    22    23    1
    44    22    24    1
    45    24    79    1
    46    24    25    1
    47    79    80    1
    48    80    81    1
    49    80    82    1
    50    25    26    2
    51    25    27   am
    52    27    28    1
    53    27    56    1
    54    28    29    1
    55    28    30    1
    56    30    31    2
    57    30    32   am
    58    32    33    1
    59    32    57    1
    60    33    35    1
    61    33    34    1
    62    35    36    2
    63    35    37   am
    64    37    38    1
    65    37    39    1
    66    39    83    1
    67    39    40    1
    68    83    84    1
    69    84    85    1
    70    84    86    1
    71    40    41    2
    72    40    42   am
    73    42    43    1
    74    42    44    1
    75    44    87    1
    76    44    45    1
    77    87    88    1
    78    88    89    1
    79    88    90    1
    80    45    46    2
    81    45    47   am
    82    47    48    1
    83    47    49    1
    84    49    70    1
    85    49    50    1
    86    70    71    1
    87    70    72    1
    88    50    51    2
    89    50    52   am
    90    52    53    1
#	Name:			CHEMBL1612004
#	Creating user name:	trannguyen
#	Creation time:		Tue Feb  8 18:26:14 2022


#	Modifying user name:	trannguyen
#	Modification time:	Tue Feb  8 18:26:14 2022

@<TRIPOS>MOLECULE
CHEMBL1612004
 11 11 0 0 0
SMALL
GASTEIGER

@<TRIPOS>ATOM
      1 C           1.2555   29.9016    9.4796 C.ar    1  UNL1        0.1515
      2 C           2.6021   30.2038    9.2729 C.ar    1  UNL1        0.0382
      3 C           3.5823   29.4101    9.8651 C.ar    1  UNL1        0.0032
      4 C           3.2106   28.3247   10.6589 C.ar    1  UNL1        0.0015
      5 C           1.8588   28.0145   10.8404 C.ar    1  UNL1        0.0172
      6 C           0.8665   28.7638   10.2044 C.ar    1  UNL1        0.0760
      7 N          -0.4919   28.5115   10.4755 N.pl3   1  UNL1       -0.3546
      8 H          -0.6905   27.5282   10.6265 H       1  UNL1        0.1424
      9 H          -1.0783   28.9162    9.7467 H       1  UNL1        0.1424
     10 C           0.6227   32.0651    9.0850 C.3     1  UNL1        0.2525
     11 O           0.2962   30.6882    8.8869 O.3     1  UNL1       -0.4702
@<TRIPOS>BOND
     1    10    11    1
     2    11     1    1
     3     1     2   ar
     4     1     6   ar
     5     2     3   ar
     6     3     4   ar
     7     4     5   ar
     8     5     6   ar
     9     6     7    1
    10     7     8    1
    11     7     9    1
#	Name:			CHEMBL1614641
#	Creating user name:	trannguyen
#	Creation time:		Tue Feb  8 18:26:14 2022


#	Modifying user name:	trannguyen
#	Modification time:	Tue Feb  8 18:26:14 2022

@<TRIPOS>MOLECULE
CHEMBL1614641
 22 24 0 0 0
SMALL
GASTEIGER

@<TRIPOS>ATOM
      1 C           2.8078   29.5626    9.6979 C.ar    1  UNL1       -0.0103
      2 C           2.5077   30.6607    8.8652 C.ar    1  UNL1       -0.0005
      3 C           3.4415   31.6771    8.6128 C.ar    1  UNL1        0.0388
      4 C           4.6804   31.5280    9.2206 C.ar    1  UNL1        0.1647
      5 O           5.7447   32.3716    9.1359 O.2     1  UNL1       -0.4346
      6 C           6.7111   31.7770    9.9114 C.ar    1  UNL1        0.2297
      7 N           6.3356   30.6352   10.4658 N.ar    1  UNL1       -0.2083
      8 C           5.0404   30.4701   10.0338 C.ar    1  UNL1        0.1186
      9 C           4.0934   29.4632   10.2843 C.ar    1  UNL1        0.0186
     10 C           7.9798   32.5010   10.0186 C.ar    1  UNL1        0.0537
     11 C           8.8765   32.5283    8.9371 C.ar    1  UNL1        0.0070
     12 C          10.0995   33.2019    9.0397 C.ar    1  UNL1        0.0298
     13 C          10.4299   33.8512   10.2231 C.ar    1  UNL1        0.1401
     14 F          11.6021   34.4910   10.3234 F       1  UNL1       -0.2042
     15 C           9.5608   33.8439   11.3051 C.ar    1  UNL1        0.0298
     16 C           8.3398   33.1721   11.2021 C.ar    1  UNL1        0.0070
     17 C           0.3542   29.0361    9.9400 C.3     1  UNL1        0.0164
     18 C           1.7769   28.4673    9.9731 C.3     1  UNL1        0.1211
     19 C           1.9901   27.6731   11.2623 C.2     1  UNL1        0.3174
     20 O           1.9126   28.1666   12.3843 O.2     1  UNL1       -0.2499
     21 O           2.1865   26.3454   11.1069 O.3     1  UNL1       -0.4800
     22 H           2.2046   26.0377   10.1793 H       1  UNL1        0.2951
@<TRIPOS>BOND
     1    18    19    1
     2    18     1    1
     3    18    17    1
     4    19    20    2
     5    19    21    1
     6    21    22    1
     7     1     2   ar
     8     1     9   ar
     9     2     3   ar
    10     3     4   ar
    11     4     5   ar
    12     4     8   ar
    13     5     6   ar
    14     6    10    1
    15     6     7   ar
    16    10    11   ar
    17    10    16   ar
    18    11    12   ar
    19    12    13   ar
    20    13    14    1
    21    13    15   ar
    22    15    16   ar
    23     7     8   ar
    24     8     9   ar
#	Name:			CHEMBL1618305
#	Creating user name:	trannguyen
#	Creation time:		Tue Feb  8 18:26:14 2022


#	Modifying user name:	trannguyen
#	Modification time:	Tue Feb  8 18:26:14 2022

@<TRIPOS>MOLECULE
CHEMBL1618305
 52 61 0 0 0
SMALL
GASTEIGER

@<TRIPOS>ATOM
      1 N           8.8724   31.2943    8.2317 N.3     1  UNL1       -0.2678
      2 C           8.0700   30.5285    7.2633 C.3     1  UNL1        0.0730
      3 C           7.5893   31.3384    6.0487 C.3     1  UNL1        0.0277
      4 C           6.9892   32.7161    6.4647 C.3     1  UNL1        0.0886
      5 C           5.7656   32.4494    7.2437 C.ar    1  UNL1        0.0164
      6 C           5.7217   32.2281    8.6056 C.ar    1  UNL1       -0.0214
      7 C           4.4834   31.8474    9.1076 C.ar    1  UNL1       -0.0012
      8 C           3.3778   31.6895    8.2296 C.ar    1  UNL1        0.0394
      9 C           3.4851   31.9626    6.8519 C.ar    1  UNL1        0.1674
     10 O           2.4300   31.8014    6.0111 O.3     1  UNL1       -0.5029
     11 C           4.6947   32.3917    6.3710 C.ar    1  UNL1        0.1682
     12 O           5.0747   32.7669    5.0891 O.3     1  UNL1       -0.4703
     13 C           6.2966   33.4866    5.3447 C.3     1  UNL1        0.2091
     14 C           7.4519   33.7768    4.3825 C.2     1  UNL1        0.0982
     15 N           7.4316   33.2838    3.1881 N.2     1  UNL1       -0.1537
     16 C           8.5921   34.6082    5.0043 C.3     1  UNL1        0.0493
     17 C           9.1357   33.9459    6.2970 C.3     1  UNL1        0.0348
     18 C           7.9953   33.5371    7.2600 C.3     1  UNL1        0.1093
     19 O           7.4546   34.8047    7.6911 O.3     1  UNL1       -0.3850
     20 C           8.3182   32.6463    8.5151 C.3     1  UNL1        0.0872
     21 C           6.9938   32.4528    9.3994 C.3     1  UNL1        0.0445
     22 H           1.7436   31.2922    6.4700 H       1  UNL1        0.2923
     23 H           6.5995   34.6647    8.1344 H       1  UNL1        0.2103
     24 N           8.5839   33.5392    2.4638 N.2     1  UNL1       -0.1537
     25 C           8.3734   33.9980    1.2654 C.2     1  UNL1        0.0982
     26 C           6.9653   34.2583    0.7160 C.3     1  UNL1        0.0493
     27 C           6.8568   34.3084   -0.8135 C.3     1  UNL1        0.0348
     28 C           7.9431   35.2373   -1.3667 C.3     1  UNL1        0.1093
     29 O           7.6669   36.4903   -0.7142 O.3     1  UNL1       -0.3850
     30 C           8.1937   35.4458   -2.9150 C.3     1  UNL1        0.0872
     31 C           8.8359   36.8244   -3.1834 C.3     1  UNL1        0.0445
     32 C          10.0605   36.8640   -2.2136 C.ar    1  UNL1       -0.0214
     33 C          10.8748   37.9915   -2.1114 C.ar    1  UNL1       -0.0012
     34 C          11.7231   38.1360   -0.9988 C.ar    1  UNL1        0.0394
     35 C          11.7031   37.1952    0.0411 C.ar    1  UNL1        0.1674
     36 O          12.3980   37.4137    1.1941 O.3     1  UNL1       -0.5029
     37 C          10.9156   36.0637   -0.0817 C.ar    1  UNL1        0.1682
     38 C          10.2136   35.8262   -1.2427 C.ar    1  UNL1        0.0164
     39 C           9.2928   34.6271   -1.0442 C.3     1  UNL1        0.0886
     40 C           9.4486   33.3099   -1.9578 C.3     1  UNL1        0.0277
     41 C           8.4947   33.1408   -3.2567 C.3     1  UNL1        0.0730
     42 N           7.5885   34.3048   -3.5754 N.3     1  UNL1       -0.2678
     43 C           9.6197   34.2822    0.4074 C.3     1  UNL1        0.2091
     44 O          10.5579   35.2354    0.9545 O.3     1  UNL1       -0.4703
     45 H           6.8220   36.8233   -1.0645 H       1  UNL1        0.2103
     46 H          12.7212   38.3276    1.1919 H       1  UNL1        0.2923
     47 C           7.3416   34.4713   -5.0022 C.3     1  UNL1        0.0989
     48 C           7.5883   33.1886   -5.7473 C.2     1  UNL1       -0.0088
     49 C           6.8625   32.7703   -6.7929 C.2     1  UNL1       -0.0035
     50 C          10.2994   31.2119    7.9160 C.3     1  UNL1        0.0989
     51 C          11.9837   31.0746    9.7711 C.2     1  UNL1       -0.0035
     52 C          11.1879   31.7979    8.9715 C.2     1  UNL1       -0.0088
@<TRIPOS>BOND
     1    51    52    2
     2    52    50    1
     3    50     1    1
     4     1     2    1
     5     1    20    1
     6     2     3    1
     7     4     3    1
     8     4     5    1
     9     4    13    1
    10     4    18    1
    11     5     6   ar
    12     5    11   ar
    13     6     7   ar
    14     6    21    1
    15     7     8   ar
    16     8     9   ar
    17     9    10    1
    18     9    11   ar
    19    10    22    1
    20    11    12    1
    21    12    13    1
    22    13    14    1
    23    14    15    2
    24    14    16    1
    25    15    24    1
    26    24    25    2
    27    25    26    1
    28    25    43    1
    29    26    27    1
    30    27    28    1
    31    28    30    1
    32    28    39    1
    33    28    29    1
    34    29    45    1
    35    30    31    1
    36    30    42    1
    37    31    32    1
    38    32    33   ar
    39    32    38   ar
    40    33    34   ar
    41    34    35   ar
    42    35    37   ar
    43    35    36    1
    44    36    46    1
    45    37    38   ar
    46    37    44    1
    47    39    38    1
    48    39    40    1
    49    39    43    1
    50    40    41    1
    51    41    42    1
    52    42    47    1
    53    47    48    1
    54    48    49    2
    55    43    44    1
    56    16    17    1
    57    17    18    1
    58    18    19    1
    59    18    20    1
    60    19    23    1
    61    20    21    1
#	Name:			CHEMBL1619
#	Creating user name:	trannguyen
#	Creation time:		Tue Feb  8 18:26:14 2022


#	Modifying user name:	trannguyen
#	Modification time:	Tue Feb  8 18:26:14 2022

@<TRIPOS>MOLECULE
CHEMBL1619
 23 25 0 0 0
SMALL
GASTEIGER

@<TRIPOS>ATOM
      1 N           5.9000   33.5162    5.7492 N.pl3   1  UNL1       -0.3413
      2 C           4.6654   33.0001    6.1218 C.ar    1  UNL1        0.1487
      3 N           3.6201   33.1699    5.2848 N.ar    1  UNL1       -0.2006
      4 C           2.4292   32.6616    5.6595 C.ar    1  UNL1        0.2264
      5 CL          1.1475   32.8993    4.5498 Cl      1  UNL1       -0.0409
      6 N           2.0967   31.9993    6.7876 N.ar    1  UNL1       -0.1976
      7 C           3.1674   31.8741    7.5872 C.ar    1  UNL1        0.1697
      8 C           4.4532   32.3313    7.3405 C.ar    1  UNL1        0.1482
      9 N           5.2880   32.0385    8.3961 N.ar    1  UNL1       -0.2194
     10 C           4.5214   31.4163    9.2684 C.ar    1  UNL1        0.1815
     11 N           3.2350   31.2762    8.8177 N.ar    1  UNL1       -0.2714
     12 H           5.8215   34.2612    5.0693 H       1  UNL1        0.1438
     13 H           6.5332   33.6570    6.5290 H       1  UNL1        0.1438
     14 C1*         2.1215   30.6670    9.5180 C.3     1  UNL1        0.2094
     15 C2*         1.3863   29.6054    8.7140 C.3     1  UNL1        0.0858
     16 C3*         0.7679   28.7689    9.8058 C.3     1  UNL1        0.1445
     17 O3*        -0.4398   29.4064   10.2340 O.3     1  UNL1       -0.3817
     18 C4*         1.7978   28.8305   10.9356 C.3     1  UNL1        0.1731
     19 O4*         2.6043   30.0125   10.7110 O.3     1  UNL1       -0.3327
     20 H3*        -1.1084   29.2702    9.5383 H       1  UNL1        0.2104
     21 C5*         2.7295   27.6167   10.9737 C.3     1  UNL1        0.1692
     22 O5*         2.1621   26.5488   11.7280 O.3     1  UNL1       -0.3794
     23 H5*         1.4454   26.1773   11.1812 H       1  UNL1        0.2105
@<TRIPOS>BOND
     1     1     2    1
     2     1    12    1
     3     1    13    1
     4     2     3   ar
     5     2     8   ar
     6     3     4   ar
     7     4     5    1
     8     4     6   ar
     9     6     7   ar
    10     7     8   ar
    11     7    11   ar
    12     8     9   ar
    13     9    10   ar
    14    10    11   ar
    15    11    14    1
    16    14    15    1
    17    14    19    1
    18    15    16    1
    19    16    17    1
    20    16    18    1
    21    17    20    1
    22    18    19    1
    23    18    21    1
    24    21    22    1
    25    22    23    1
#	Name:			CHEMBL1626
#	Creating user name:	trannguyen
#	Creation time:		Tue Feb  8 18:26:14 2022


#	Modifying user name:	trannguyen
#	Modification time:	Tue Feb  8 18:26:14 2022

@<TRIPOS>MOLECULE
CHEMBL1626
 24 26 0 0 0
SMALL
GASTEIGER

@<TRIPOS>ATOM
      1 C           3.9282   32.6891    7.7090 C.3     1  UNL1        0.1301
      2 C           5.4603   32.4621    7.7575 C.3     1  UNL1        0.0388
      3 C           3.1611   31.5518    8.4603 C.ar    1  UNL1        0.0059
      4 C           1.7591   31.4080    8.3769 C.ar    1  UNL1       -0.0008
      5 C           1.0652   30.4856    9.1700 C.ar    1  UNL1        0.0112
      6 C           1.7692   29.5832    9.9600 C.ar    1  UNL1        0.0577
      7 CL          0.9257   28.4675   10.9603 Cl      1  UNL1       -0.0822
      8 C           3.1517   29.6048    9.9618 C.ar    1  UNL1        0.0112
      9 C           3.8282   30.6251    9.2842 C.ar    1  UNL1       -0.0008
     10 C           3.5673   32.7225    6.1535 C.ar    1  UNL1        0.0059
     11 C           3.6496   31.5728    5.3451 C.ar    1  UNL1       -0.0017
     12 C           3.2132   31.5726    3.9990 C.ar    1  UNL1       -0.0002
     13 C           2.6893   32.7239    3.4132 C.ar    1  UNL1       -0.0000
     14 C           2.5843   33.8764    4.1815 C.ar    1  UNL1       -0.0002
     15 C           3.0028   33.8553    5.5053 C.ar    1  UNL1       -0.0017
     16 O           3.6372   34.0022    8.3036 O.3     1  UNL1       -0.3504
     17 C           4.1695   34.3293    9.6214 C.3     1  UNL1        0.1442
     18 C           2.9975   34.5806   10.5861 C.3     1  UNL1        0.0480
     19 C           1.5424   37.4981    9.4943 C.3     1  UNL1        0.0896
     20 N           1.1367   36.4270   10.4088 N.3     1  UNL1       -0.2727
     21 C          -0.3415   36.3502   10.3679 C.3     1  UNL1        0.0721
     22 C          -0.6627   34.9985   10.9507 C.3     1  UNL1        0.0187
     23 C           0.5297   34.1388   10.5701 C.3     1  UNL1        0.0175
     24 C           1.6295   35.0846   10.0254 C.3     1  UNL1        0.0601
@<TRIPOS>BOND
     1    19    20    1
     2    20    21    1
     3    20    24    1
     4    21    22    1
     5    22    23    1
     6    23    24    1
     7    24    18    1
     8    18    17    1
     9    17    16    1
    10     1    10    1
    11     1     3    1
    12     1     2    1
    13     1    16    1
    14    10    11   ar
    15    10    15   ar
    16    11    12   ar
    17    12    13   ar
    18    13    14   ar
    19    14    15   ar
    20     3     4   ar
    21     3     9   ar
    22     4     5   ar
    23     5     6   ar
    24     6     7    1
    25     6     8   ar
    26     8     9   ar
#	Name:			CHEMBL1628227
#	Creating user name:	trannguyen
#	Creation time:		Tue Feb  8 18:26:14 2022


#	Modifying user name:	trannguyen
#	Modification time:	Tue Feb  8 18:26:14 2022

@<TRIPOS>MOLECULE
CHEMBL1628227
 21 23 0 0 0
SMALL
GASTEIGER

@<TRIPOS>ATOM
      1 C           2.2565   31.4560    7.2583 C.2     1  UNL1       -0.0246
      2 C           2.6583   31.4540    8.5475 C.2     1  UNL1       -0.0015
      3 C           3.5629   32.5113    9.0527 C.ar    1  UNL1       -0.0007
      4 C           3.1472   33.8384    9.2193 C.ar    1  UNL1       -0.0002
      5 C           4.0463   34.7997    9.6819 C.ar    1  UNL1       -0.0000
      6 C           5.3559   34.4376    9.9952 C.ar    1  UNL1       -0.0002
      7 C           5.7665   33.1101    9.8623 C.ar    1  UNL1       -0.0007
      8 C           4.8706   32.1385    9.3965 C.ar    1  UNL1        0.0212
      9 C           5.2593   30.6880    9.2830 C.3     1  UNL1        0.2320
     10 O           4.6367   29.8950   10.2954 O.3     1  UNL1       -0.4706
     11 C           3.3002   29.6001   10.1726 C.ar    1  UNL1        0.1389
     12 C           2.9062   28.5279   10.9869 C.ar    1  UNL1        0.0369
     13 C           1.5822   28.0919   11.0156 C.ar    1  UNL1        0.0031
     14 C           0.6277   28.7379   10.2395 C.ar    1  UNL1        0.0002
     15 C           1.0019   29.8176    9.4373 C.ar    1  UNL1        0.0030
     16 C           2.3397   30.2602    9.3804 C.ar    1  UNL1        0.0337
     17 C           2.5570   32.4837    6.1936 C.3     1  UNL1        0.0433
     18 C           1.6821   32.2979    4.9386 C.3     1  UNL1        0.0769
     19 C           3.3737   33.2419    3.4522 C.3     1  UNL1        0.0897
     20 N           2.4662   32.1179    3.6990 N.3     1  UNL1       -0.2700
     21 C           3.2396   30.8741    3.7695 C.3     1  UNL1        0.0897
@<TRIPOS>BOND
     1    19    20    1
     2    20    21    1
     3    20    18    1
     4    18    17    1
     5    17     1    1
     6     1     2    2
     7     2     3    1
     8     2    16    1
     9     3     4   ar
    10     3     8   ar
    11     4     5   ar
    12     5     6   ar
    13     6     7   ar
    14     7     8   ar
    15     8     9    1
    16     9    10    1
    17    10    11    1
    18    11    12   ar
    19    11    16   ar
    20    12    13   ar
    21    13    14   ar
    22    14    15   ar
    23    15    16   ar
#	Name:			CHEMBL1629810
#	Creating user name:	trannguyen
#	Creation time:		Tue Feb  8 18:26:14 2022


#	Modifying user name:	trannguyen
#	Modification time:	Tue Feb  8 18:26:14 2022

@<TRIPOS>MOLECULE
CHEMBL1629810
 142 150 0 0 0
SMALL
GASTEIGER

@<TRIPOS>ATOM
      1 C          12.7004   39.4451    3.2957 C.3     1  UNL1        0.1768
      2 O          12.7017   39.2450    1.8174 O.3     1  UNL1       -0.3259
      3 C          12.8312   40.2680    0.8527 C.3     1  UNL1        0.2658
      4 O          12.7794   39.7774   -0.6471 O.3     1  UNL1       -0.3260
      5 C          12.4140   38.3532   -1.0276 C.3     1  UNL1        0.1766
      6 C          11.1827   38.1134   -2.1217 C.3     1  UNL1        0.1768
      7 O          10.6804   36.7469   -2.0667 O.3     1  UNL1       -0.3259
      8 C          11.5194   35.5884   -2.0610 C.3     1  UNL1        0.2658
      9 O          11.0785   34.4625   -1.0884 O.3     1  UNL1       -0.3260
     10 C           9.6006   33.9996   -1.1454 C.3     1  UNL1        0.1766
     11 C           9.1081   32.5435   -0.7132 C.3     1  UNL1        0.1768
     12 O           9.2719   32.3483    0.7059 O.3     1  UNL1       -0.3259
     13 C           8.4982   33.0767    1.6713 C.3     1  UNL1        0.2658
     14 O           7.6570   32.1652    2.3838 O.3     1  UNL1       -0.3260
     15 C           7.4248   32.2024    3.8069 C.3     1  UNL1        0.1766
     16 C           8.4503   32.7847    4.8295 C.3     1  UNL1        0.1768
     17 O           8.0156   32.5925    6.2025 O.3     1  UNL1       -0.3259
     18 C           6.6591   32.9940    6.4899 C.3     1  UNL1        0.2658
     19 O           6.4328   32.8767    7.9156 O.3     1  UNL1       -0.3260
     20 C           6.7444   34.0853    8.7126 C.3     1  UNL1        0.1764
     21 C           6.0328   33.9706   10.1127 C.3     1  UNL1        0.1743
     22 O           6.8346   33.9874   11.2998 O.3     1  UNL1       -0.3484
     23 C           8.2184   33.6967   11.1668 C.3     1  UNL1        0.1742
     24 C           8.8521   34.6349   10.1437 C.3     1  UNL1        0.1739
     25 O           8.5355   36.0090   10.4279 O.3     1  UNL1       -0.3484
     26 C           9.6479   36.9208   10.5845 C.3     1  UNL1        0.1741
     27 C          10.5874   37.0696    9.3373 C.3     1  UNL1        0.1767
     28 O          10.4550   38.2470    8.5681 O.3     1  UNL1       -0.3259
     29 C           9.1733   38.8581    8.3563 C.3     1  UNL1        0.2658
     30 O           9.4601   39.7441    7.1804 O.3     1  UNL1       -0.3260
     31 C           9.1341   41.2346    6.7880 C.3     1  UNL1        0.1766
     32 C           8.0875   41.7466    7.9977 C.3     1  UNL1        0.1768
     33 O           8.8018   41.8623    9.4773 O.3     1  UNL1       -0.3259
     34 C          10.4331   42.1535    9.7612 C.3     1  UNL1        0.2658
     35 O          10.4326   43.9693    9.3888 O.3     1  UNL1       -0.3260
     36 C          11.8841   44.3906    8.4774 C.3     1  UNL1        0.1766
     37 C          12.9644   43.6466    7.1945 C.3     1  UNL1        0.1768
     38 O          12.9798   42.1549    6.4138 O.3     1  UNL1       -0.3259
     39 C          11.6595   40.9822    6.6575 C.3     1  UNL1        0.2658
     40 O          11.1607   40.4310    5.1387 O.3     1  UNL1       -0.3260
     41 C          12.0851   40.6705    3.9657 C.3     1  UNL1        0.1766
     42 C          11.7309   41.6938    2.8416 C.3     1  UNL1        0.1719
     43 O          10.4195   42.1916    3.0509 O.3     1  UNL1       -0.3794
     44 C          11.8371   41.3642    1.2854 C.3     1  UNL1        0.1964
     45 O          12.1759   42.6086    0.6273 O.3     1  UNL1       -0.3775
     46 C          10.5377   42.4305    7.9606 C.3     1  UNL1        0.1964
     47 O           9.4784   43.4575    7.5891 O.3     1  UNL1       -0.3775
     48 C          11.9747   43.2546    9.2639 C.3     1  UNL1        0.1719
     49 O          13.1349   42.5897    9.8059 O.3     1  UNL1       -0.3794
     50 C          11.8058   41.5614    8.2626 C.3     1  UNL1        0.1964
     51 O          11.9173   40.2447    8.8713 O.3     1  UNL1       -0.3775
     52 C          10.7940   42.3524    6.4030 C.3     1  UNL1        0.1719
     53 O          10.8170   43.8593    6.0697 O.3     1  UNL1       -0.3794
     54 C           8.7751   39.2670    9.8196 C.3     1  UNL1        0.1964
     55 O           7.4614   39.8055    9.9821 O.3     1  UNL1       -0.3775
     56 C           9.0008   38.2517   10.9671 C.3     1  UNL1        0.1718
     57 O           9.7412   38.9311   12.0187 O.3     1  UNL1       -0.3794
     58 C           8.2713   34.2912    8.7704 C.3     1  UNL1        0.1696
     59 O           8.6069   35.3673    7.8740 O.3     1  UNL1       -0.3794
     60 C           5.6846   32.1233    5.6135 C.3     1  UNL1        0.1964
     61 O           4.2645   32.2946    5.7603 O.3     1  UNL1       -0.3775
     62 C           5.9497   32.4769    4.1379 C.3     1  UNL1        0.1719
     63 O           5.0751   31.6201    3.3602 O.3     1  UNL1       -0.3794
     64 C           7.7695   34.3208    1.1151 C.3     1  UNL1        0.1964
     65 O           7.4835   35.1869    2.2904 O.3     1  UNL1       -0.3775
     66 C           8.7692   34.9276   -0.1773 C.3     1  UNL1        0.1719
     67 O           8.4053   35.9793   -1.0752 O.3     1  UNL1       -0.3794
     68 C          13.0879   35.9884   -2.0699 C.3     1  UNL1        0.1964
     69 O          13.5425   35.7955   -3.4544 O.3     1  UNL1       -0.3775
     70 C          13.5563   37.4946   -1.7261 C.3     1  UNL1        0.1719
     71 O          14.7229   37.4485   -0.8839 O.3     1  UNL1       -0.3794
     72 H          10.3542   43.0039    2.5130 H       1  UNL1        0.2105
     73 H          12.4278   42.3729   -0.2845 H       1  UNL1        0.2106
     74 H           9.5376   44.1646    8.2616 H       1  UNL1        0.2106
     75 H          13.4589   43.1072   10.5734 H       1  UNL1        0.2105
     76 H          12.5488   40.3439    9.6053 H       1  UNL1        0.2106
     77 H          10.1562   43.9559    5.3529 H       1  UNL1        0.2105
     78 H           6.8622   39.1054   10.2735 H       1  UNL1        0.2106
     79 H          10.6529   38.6083   12.0424 H       1  UNL1        0.2105
     80 H           8.2334   35.1610    7.0060 H       1  UNL1        0.2105
     81 H           3.8809   32.0656    4.8741 H       1  UNL1        0.2106
     82 H           5.2805   30.6997    3.6126 H       1  UNL1        0.2105
     83 H           8.2513   35.4047    2.8507 H       1  UNL1        0.2106
     84 H           7.5415   36.0646   -1.5016 H       1  UNL1        0.2105
     85 H          12.9816   36.3633   -4.0156 H       1  UNL1        0.2106
     86 H          14.8496   38.3605   -0.5722 H       1  UNL1        0.2105
     87 C           9.9154   39.0776   -2.0101 C.3     1  UNL1        0.1743
     88 O           8.5355   38.5834   -2.2618 O.3     1  UNL1       -0.3485
     89 C           7.5812   39.7130   -2.2907 C.3     1  UNL1        0.1713
     90 C           6.8753   40.0583   -3.6569 C.3     1  UNL1        0.1401
     91 C           6.2175   38.8881   -4.3566 C.3     1  UNL1        0.0344
     92 O           5.8607   41.0736   -3.5144 O.3     1  UNL1       -0.3819
     93 H           5.5618   41.3071   -4.4176 H       1  UNL1        0.2104
     94 C          14.4747   43.8546    7.6319 C.3     1  UNL1        0.1743
     95 O          15.3696   44.2097    6.5595 O.3     1  UNL1       -0.3485
     96 C          16.4028   43.2370    6.3841 C.3     1  UNL1        0.1713
     97 C          16.4657   42.6195    4.9743 C.3     1  UNL1        0.1401
     98 C          17.1348   41.2530    4.9299 C.3     1  UNL1        0.0344
     99 O          15.1322   42.4106    4.4833 O.3     1  UNL1       -0.3819
    100 H          14.6280   43.2359    4.5747 H       1  UNL1        0.2104
    101 C           7.0498   42.9441    7.8093 C.3     1  UNL1        0.1743
    102 O           6.9716   43.6035    6.5295 O.3     1  UNL1       -0.3485
    103 C           5.9336   43.1580    5.6481 C.3     1  UNL1        0.1713
    104 C           4.6162   42.8230    6.3233 C.3     1  UNL1        0.1401
    105 C           3.6764   43.9597    6.3805 C.3     1  UNL1        0.0344
    106 O           3.7935   42.1057    5.4137 O.3     1  UNL1       -0.3819
    107 H           2.9523   41.8864    5.9055 H       1  UNL1        0.2104
    108 C          12.2765   38.0781    3.7412 C.3     1  UNL1        0.1743
    109 O          10.9777   37.7114    3.2507 O.3     1  UNL1       -0.3485
    110 C          10.2963   36.6254    3.8981 C.3     1  UNL1        0.1713
    111 C           8.4431   38.2866    4.2723 C.3     1  UNL1        0.0344
    112 C           9.0546   37.0306    4.7438 C.3     1  UNL1        0.1401
    113 O           7.8956   36.2923    5.1233 O.3     1  UNL1       -0.3819
    114 H           7.1116   36.5267    4.6169 H       1  UNL1        0.2104
    115 C          12.0689   36.9777    9.7952 C.3     1  UNL1        0.1743
    116 O          13.0769   37.5681    8.9544 O.3     1  UNL1       -0.3485
    117 C          14.4046   37.7366    9.5209 C.3     1  UNL1        0.1713
    118 C          15.1688   39.0380    9.1747 C.3     1  UNL1        0.1401
    119 C          15.1082   39.4286    7.7310 C.3     1  UNL1        0.0344
    120 O          14.7148   40.1700    9.9016 O.3     1  UNL1       -0.3819
    121 H          13.8879   40.4421    9.4627 H       1  UNL1        0.2104
    122 C           4.8125   34.9634   10.2411 C.3     1  UNL1        0.1742
    123 O           4.0739   35.1709    9.0223 O.3     1  UNL1       -0.3485
    124 C           2.6981   35.5913    9.2091 C.3     1  UNL1        0.1713
    125 C           2.3826   36.9939    8.6789 C.3     1  UNL1        0.1401
    126 C           1.4950   37.6533    9.7096 C.3     1  UNL1        0.0344
    127 O           3.5492   37.7531    8.3725 O.3     1  UNL1       -0.3819
    128 H           3.4818   38.6120    8.8217 H       1  UNL1        0.2104
    129 C           9.8208   32.0469    4.6423 C.3     1  UNL1        0.1743
    130 O          10.8956   32.7078    5.3632 O.3     1  UNL1       -0.3485
    131 C          11.6363   31.7730    6.1556 C.3     1  UNL1        0.1713
    132 C          11.5688   31.9325    7.6875 C.3     1  UNL1        0.1401
    133 C          11.7827   33.4096    8.0197 C.3     1  UNL1        0.0344
    134 O          10.2176   31.5793    8.0152 O.3     1  UNL1       -0.3819
    135 H          10.1902   31.3071    8.9436 H       1  UNL1        0.2104
    136 C           7.5828   32.3223   -1.2933 C.3     1  UNL1        0.1743
    137 O           7.0237   33.0372   -2.5155 O.3     1  UNL1       -0.3485
    138 C           7.9276   33.4231   -3.6272 C.3     1  UNL1        0.1713
    139 C           8.0476   34.8824   -4.5641 C.3     1  UNL1        0.1401
    140 C           7.0289   35.2985   -5.6288 C.3     1  UNL1        0.0344
    141 O           8.4444   36.0779   -3.8359 O.3     1  UNL1       -0.3819
    142 H           7.6906   36.6796   -3.6927 H       1  UNL1        0.2104
@<TRIPOS>BOND
     1   111   112    1
     2   112   113    1
     3   112   110    1
     4   113   114    1
     5   110   109    1
     6   109   108    1
     7     1     2    1
     8     1    41    1
     9     1   108    1
    10     2     3    1
    11     3     4    1
    12     3    44    1
    13     4     5    1
    14     5     6    1
    15     5    70    1
    16     6     7    1
    17     6    87    1
    18    87    88    1
    19    88    89    1
    20    89    90    1
    21    90    91    1
    22    90    92    1
    23    92    93    1
    24     7     8    1
    25     8     9    1
    26     8    68    1
    27     9    10    1
    28    10    11    1
    29    10    66    1
    30    11    12    1
    31    11   136    1
    32   136   137    1
    33   137   138    1
    34   138   139    1
    35   139   140    1
    36   139   141    1
    37   141   142    1
    38    12    13    1
    39    13    14    1
    40    13    64    1
    41    14    15    1
    42    15    16    1
    43    15    62    1
    44    16    17    1
    45    16   129    1
    46   129   130    1
    47   130   131    1
    48   131   132    1
    49   132   133    1
    50   132   134    1
    51   134   135    1
    52    17    18    1
    53    18    19    1
    54    18    60    1
    55    19    20    1
    56    20    21    1
    57    20    58    1
    58    21    22    1
    59    21   122    1
    60   122   123    1
    61   123   124    1
    62   124   125    1
    63   125   126    1
    64   125   127    1
    65   127   128    1
    66    22    23    1
    67    23    24    1
    68    24    25    1
    69    24    58    1
    70    25    26    1
    71    26    27    1
    72    26    56    1
    73    27    28    1
    74    27   115    1
    75   115   116    1
    76   116   117    1
    77   117   118    1
    78   118   119    1
    79   118   120    1
    80   120   121    1
    81    28    29    1
    82    29    30    1
    83    29    54    1
    84    30    31    1
    85    31    32    1
    86    31    52    1
    87    32    33    1
    88    32   101    1
    89   101   102    1
    90   102   103    1
    91   103   104    1
    92   104   105    1
    93   104   106    1
    94   106   107    1
    95    33    34    1
    96    34    35    1
    97    34    50    1
    98    35    36    1
    99    36    37    1
   100    36    48    1
   101    37    38    1
   102    37    94    1
   103    94    95    1
   104    95    96    1
   105    96    97    1
   106    97    98    1
   107    97    99    1
   108    99   100    1
   109    38    39    1
   110    39    40    1
   111    39    46    1
   112    40    41    1
   113    41    42    1
   114    42    43    1
   115    42    44    1
   116    43    72    1
   117    44    45    1
   118    45    73    1
   119    46    48    1
   120    46    47    1
   121    47    74    1
   122    48    49    1
   123    49    75    1
   124    50    52    1
   125    50    51    1
   126    51    76    1
   127    52    53    1
   128    53    77    1
   129    54    56    1
   130    54    55    1
   131    55    78    1
   132    56    57    1
   133    57    79    1
   134    58    59    1
   135    59    80    1
   136    60    62    1
   137    60    61    1
   138    61    81    1
   139    62    63    1
   140    63    82    1
   141    64    66    1
   142    64    65    1
   143    65    83    1
   144    66    67    1
   145    67    84    1
   146    68    70    1
   147    68    69    1
   148    69    85    1
   149    70    71    1
   150    71    86    1
#	Name:			CHEMBL1630578
#	Creating user name:	trannguyen
#	Creation time:		Tue Feb  8 18:26:14 2022


#	Modifying user name:	trannguyen
#	Modification time:	Tue Feb  8 18:26:14 2022

@<TRIPOS>MOLECULE
CHEMBL1630578
 46 53 0 0 0
SMALL
GASTEIGER

@<TRIPOS>ATOM
      1 C           9.5743   33.7806    9.7805 C.2     1  UNL1        0.1663
      2 O           9.8297   33.0747   10.7632 O.2     1  UNL1       -0.2946
      3 C          10.6675   31.4677    7.0905 C.3     1  UNL1        0.0004
      4 C           9.8192   31.7125    8.3357 C.3     1  UNL1        0.0070
      5 C           8.6034   30.7568    8.4515 C.3     1  UNL1        0.0008
      6 C           7.4691   31.6683    8.9267 C.3     1  UNL1        0.0045
      7 C           6.0259   31.1210    8.8845 C.3     1  UNL1        0.0189
      8 C           5.8164   30.2965   10.1638 C.3     1  UNL1        0.0084
      9 C           4.4578   29.6294   10.2395 C.3     1  UNL1        0.0230
     10 C           3.3121   30.4087    9.6626 C.2     1  UNL1       -0.0345
     11 C           2.1269   29.7735    9.5667 C.2     1  UNL1        0.0341
     12 C           1.0655   30.3080    8.6752 C.2     1  UNL1        0.1948
     13 O          -0.0880   29.9399    8.7493 O.2     1  UNL1       -0.2866
     14 C           1.5406   31.2218    7.6008 C.2     1  UNL1        0.0380
     15 C           2.7066   31.8777    7.7601 C.2     1  UNL1       -0.0160
     16 C           3.4948   31.8132    9.0659 C.3     1  UNL1        0.0486
     17 C           2.8133   32.8273   10.0371 C.3     1  UNL1        0.0125
     18 C           4.9698   32.2275    8.8579 C.2     1  UNL1       -0.0422
     19 C           5.3382   33.5292    8.7595 C.2     1  UNL1       -0.0340
     20 C           6.7560   34.0308    8.6897 C.3     1  UNL1        0.0258
     21 C           7.7137   32.9675    8.1461 C.3     1  UNL1        0.0109
     22 C           7.4581   32.8424    6.6192 C.3     1  UNL1        0.0008
     23 C           9.2373   33.1694    8.4015 C.3     1  UNL1        0.0593
     24 C           9.5513   35.2963    9.9479 C.3     1  UNL1        0.1376
     25 N          10.5156   35.7653   10.9602 N.3     1  UNL1       -0.2635
     26 C          11.3721   36.8337   10.3813 C.3     1  UNL1        0.0942
     27 C          10.6372   38.1494   10.0182 C.3     1  UNL1        0.1095
     28 N           9.8405   38.6589   11.1491 N.pl3   1  UNL1       -0.2902
     29 C           9.0377   37.6507   11.8802 C.3     1  UNL1        0.1095
     30 C           9.8441   36.3530   12.1441 C.3     1  UNL1        0.0942
     31 C           9.0664   39.7980   10.7939 C.ar    1  UNL1        0.1375
     32 C           8.6591   39.9204    9.4837 C.ar    1  UNL1        0.0687
     33 C           7.8550   40.9878    9.1317 C.ar    1  UNL1        0.1374
     34 N           7.5052   41.8997   10.0495 N.ar    1  UNL1       -0.1986
     35 C           7.9308   41.7449   11.3155 C.ar    1  UNL1        0.2224
     36 N           8.6951   40.7069   11.7100 N.ar    1  UNL1       -0.1986
     37 N           7.4305   41.1091    7.8018 N.pl3   1  UNL1       -0.2931
     38 C           6.5664   42.2324    7.4217 C.3     1  UNL1        0.0922
     39 C           5.2925   41.5621    6.9141 C.3     1  UNL1        0.0232
     40 C           5.8341   40.3162    6.2351 C.3     1  UNL1        0.0232
     41 C           6.9279   39.8660    7.1954 C.3     1  UNL1        0.0922
     42 N           7.5415   42.6731   12.2688 N.pl3   1  UNL1       -0.2781
     43 C           6.3857   43.5055   11.9469 C.3     1  UNL1        0.0937
     44 C           5.8228   43.8985   13.3141 C.3     1  UNL1        0.0233
     45 C           6.1529   42.6868   14.1695 C.3     1  UNL1        0.0233
     46 C           7.5464   42.2987   13.6801 C.3     1  UNL1        0.0937
@<TRIPOS>BOND
     1     4     5    1
     2     4    23    1
     3     4     3    1
     4     5     6    1
     5     6     7    1
     6     6    21    1
     7     7     8    1
     8     7    18    1
     9     8     9    1
    10     9    10    1
    11    10    11    2
    12    10    16    1
    13    11    12    1
    14    12    14    1
    15    12    13    2
    16    14    15    2
    17    15    16    1
    18    16    18    1
    19    16    17    1
    20    18    19    2
    21    19    20    1
    22    20    21    1
    23    21    23    1
    24    21    22    1
    25    23     1    1
    26     1     2    2
    27     1    24    1
    28    24    25    1
    29    25    26    1
    30    25    30    1
    31    26    27    1
    32    27    28    1
    33    28    31    1
    34    28    29    1
    35    31    32   ar
    36    31    36   ar
    37    32    33   ar
    38    33    37    1
    39    33    34   ar
    40    37    38    1
    41    37    41    1
    42    38    39    1
    43    39    40    1
    44    40    41    1
    45    34    35   ar
    46    35    42    1
    47    35    36   ar
    48    42    43    1
    49    42    46    1
    50    43    44    1
    51    44    45    1
    52    45    46    1
    53    29    30    1
#	Name:			CHEMBL1630579
#	Creating user name:	trannguyen
#	Creation time:		Tue Feb  8 18:26:14 2022


#	Modifying user name:	trannguyen
#	Modification time:	Tue Feb  8 18:26:14 2022

@<TRIPOS>MOLECULE
CHEMBL1630579
 19 20 0 0 0
SMALL
GASTEIGER

@<TRIPOS>ATOM
      1 C           2.9657   31.8782    7.4206 C.3     1  UNL1        0.0537
      2 C           3.3069   32.4201    6.0576 C.2     1  UNL1       -0.0463
      3 C           3.0538   33.6792    5.6307 C.2     1  UNL1       -0.0345
      4 C           3.4420   34.1227    4.2309 C.3     1  UNL1        0.0254
      5 C           4.1080   32.9434    3.4893 C.3     1  UNL1        0.0049
      6 C           3.2280   31.6619    3.6464 C.3     1  UNL1        0.0044
      7 C           3.9497   31.5131    5.0355 C.3     1  UNL1        0.0181
      8 C           5.2196   32.1547    4.3128 C.3     1  UNL1        0.0038
      9 C           6.1906   32.9845    5.1627 C.3     1  UNL1        0.0003
     10 C           6.0614   31.1519    3.4985 C.3     1  UNL1        0.0003
     11 C           1.4566   31.7247    7.6431 C.3     1  UNL1        0.1465
     12 O           1.1405   30.3868    8.0656 O.3     1  UNL1       -0.3519
     13 C           0.8461   30.3732    9.4715 C.3     1  UNL1        0.1594
     14 C           2.0813   30.7423   10.3222 C.3     1  UNL1        0.1046
     15 N           2.8870   29.5679   10.7426 N.3     1  UNL1       -0.2706
     16 C           2.4808   27.0994   10.2278 C.3     1  UNL1        0.0188
     17 C           2.0729   28.3637   10.9797 C.3     1  UNL1        0.0722
     18 C           4.0183   29.3432    9.8240 C.3     1  UNL1        0.0722
     19 C           5.3580   29.8717   10.3423 C.3     1  UNL1        0.0188
@<TRIPOS>BOND
     1    16    17    1
     2    17    15    1
     3    15    18    1
     4    15    14    1
     5    18    19    1
     6    14    13    1
     7    13    12    1
     8    12    11    1
     9    11     1    1
    10     1     2    1
    11     2     3    2
    12     2     7    1
    13     3     4    1
    14     4     5    1
    15     5     6    1
    16     5     8    1
    17     6     7    1
    18     7     8    1
    19     8     9    1
    20     8    10    1
#	Name:			CHEMBL163
#	Creating user name:	trannguyen
#	Creation time:		Tue Feb  8 18:26:14 2022


#	Modifying user name:	trannguyen
#	Modification time:	Tue Feb  8 18:26:14 2022

@<TRIPOS>MOLECULE
CHEMBL163
 54 57 0 0 0
SMALL
GASTEIGER

@<TRIPOS>ATOM
      1 C           7.1269   32.5821    6.8249 C.3     1  UNL1        0.0784
      2 C           8.4523   34.2938    8.1921 C.2     1  UNL1        0.2403
      3 O           7.8555   35.2598    7.7150 O.2     1  UNL1       -0.2733
      4 N           8.1533   32.9890    7.8203 N.am    1  UNL1       -0.3042
      5 H           8.5354   32.2378    8.3771 H       1  UNL1        0.1494
      6 C           9.6491   34.4767    9.2312 C.3     1  UNL1        0.1496
      7 N          12.2447   31.9295    8.2184 N.am    1  UNL1       -0.2567
      8 C          12.4318   32.2948    6.8266 C.3     1  UNL1        0.1168
      9 C          11.1654   32.4230    8.9373 C.2     1  UNL1        0.3046
     10 O          10.5916   31.6859    9.7309 O.2     1  UNL1       -0.2526
     11 N          10.8306   33.7399    8.7187 N.am    1  UNL1       -0.2824
     12 H          11.2529   34.1921    7.9252 H       1  UNL1        0.1514
     13 C          12.6987   30.5688    8.5828 C.3     1  UNL1        0.1413
     14 C          14.9897   30.2791   11.3864 C.ar    1  UNL1        0.0875
     15 N          13.8558   30.0688   10.7459 N.ar    1  UNL1       -0.2453
     16 C          13.9121   30.6268    9.4692 C.ar    1  UNL1        0.0858
     17 C          15.1146   31.2347    9.1625 C.ar    1  UNL1        0.0530
     18 S          16.1943   31.1087   10.4712 S.2     1  UNL1       -0.0705
     19 C          16.2917   30.7287   13.4809 C.3     1  UNL1        0.0069
     20 C          15.2450   29.8382   12.8114 C.3     1  UNL1        0.0465
     21 C          13.9672   29.7892   13.6539 C.3     1  UNL1        0.0069
     22 C           9.8665   35.9727    9.6333 C.3     1  UNL1        0.0270
     23 C           9.7500   36.2318   11.1375 C.3     1  UNL1        0.0022
     24 C          11.1651   36.6407    9.1704 C.3     1  UNL1        0.0022
     25 C           7.4340   33.2348    5.4322 C.3     1  UNL1        0.0508
     26 C           7.7909   32.2460    4.2863 C.3     1  UNL1        0.1304
     27 O           8.9489   32.6854    3.5729 O.3     1  UNL1       -0.3827
     28 H           8.6880   33.4005    2.9710 H       1  UNL1        0.2104
     29 C           6.6402   32.0172    3.2512 C.3     1  UNL1        0.1059
     30 N           7.1820   31.3381    2.0710 N.am    1  UNL1       -0.2696
     31 C           7.5235   31.9317    0.8775 C.2     1  UNL1        0.4020
     32 O           8.1221   31.3476    0.0209 O.2     1  UNL1       -0.2264
     33 H           7.3817   30.3499    2.0537 H       1  UNL1        0.1528
     34 O           7.1728   33.2342    0.8784 O.3     1  UNL1       -0.4291
     35 C           7.1618   33.8862   -0.3839 C.3     1  UNL1        0.2447
     36 C           7.9643   35.1198   -0.1744 C.ar    1  UNL1        0.0714
     37 C           9.0178   35.3274    0.6933 C.ar    1  UNL1        0.1053
     38 N           9.5555   36.5973    0.6839 N.ar    1  UNL1       -0.2350
     39 C           8.8908   37.3416   -0.1723 C.ar    1  UNL1        0.1343
     40 S           7.5906   36.5807   -0.9895 S.2     1  UNL1       -0.0652
     41 C           5.4805   31.1908    3.8849 C.3     1  UNL1        0.0485
     42 C           4.1429   31.8870    4.0791 C.ar    1  UNL1       -0.0204
     43 C           2.9662   31.1745    4.3452 C.ar    1  UNL1       -0.0042
     44 C           1.7477   31.8448    4.5224 C.ar    1  UNL1       -0.0003
     45 C           1.6885   33.2354    4.4476 C.ar    1  UNL1       -0.0000
     46 C           2.8420   33.9545    4.1547 C.ar    1  UNL1       -0.0003
     47 C           4.0494   33.2826    3.9379 C.ar    1  UNL1       -0.0042
     48 C           5.6749   32.9284    7.2904 C.3     1  UNL1        0.0460
     49 C           4.7831   31.9453    8.0200 C.ar    1  UNL1       -0.0205
     50 C           5.3993   31.1162    8.9837 C.ar    1  UNL1       -0.0042
     51 C           4.6629   30.2015    9.7363 C.ar    1  UNL1       -0.0003
     52 C           3.2906   30.1045    9.5432 C.ar    1  UNL1       -0.0000
     53 C           2.6672   30.9090    8.5881 C.ar    1  UNL1       -0.0003
     54 C           3.4084   31.8200    7.8236 C.ar    1  UNL1       -0.0042
@<TRIPOS>BOND
     1    19    20    1
     2    20    21    1
     3    20    14    1
     4    14    15   ar
     5    14    18   ar
     6    15    16   ar
     7    16    13    1
     8    16    17   ar
     9    13     7    1
    10     7     8    1
    11     7     9   am
    12     9    10    2
    13     9    11   am
    14    11    12    1
    15     6     2    1
    16     6    22    1
    17     6    11    1
    18     2     3    2
    19     2     4   am
    20     4     1    1
    21     4     5    1
    22     1    48    1
    23     1    25    1
    24    48    49    1
    25    49    50   ar
    26    49    54   ar
    27    50    51   ar
    28    51    52   ar
    29    52    53   ar
    30    53    54   ar
    31    26    27    1
    32    26    25    1
    33    27    28    1
    34    29    41    1
    35    29    30    1
    36    29    26    1
    37    41    42    1
    38    42    43   ar
    39    42    47   ar
    40    43    44   ar
    41    44    45   ar
    42    45    46   ar
    43    46    47   ar
    44    30    31   am
    45    30    33    1
    46    31    32    2
    47    31    34    1
    48    34    35    1
    49    35    36    1
    50    36    37   ar
    51    36    40   ar
    52    37    38   ar
    53    38    39   ar
    54    39    40   ar
    55    22    23    1
    56    22    24    1
    57    17    18   ar
#	Name:			CHEMBL164290
#	Creating user name:	trannguyen
#	Creation time:		Tue Feb  8 18:26:14 2022


#	Modifying user name:	trannguyen
#	Modification time:	Tue Feb  8 18:26:14 2022

@<TRIPOS>MOLECULE
CHEMBL164290
 7 6 0 0 0
SMALL
GASTEIGER

@<TRIPOS>ATOM
      1 N           2.4868   27.7114   10.4218 N.pl3   1  UNL1       -0.1980
      2 C           0.9857   29.5105    9.4969 C.3     1  UNL1        0.0251
      3 C           2.0747   29.1303   10.5021 C.3     1  UNL1        0.1141
      4 C           3.9109   27.6664   10.0079 C.3     1  UNL1        0.1141
      5 C           4.6690   28.9844   10.1754 C.3     1  UNL1        0.0251
      6 N           2.2518   27.0581   11.5417 N.2     1  UNL1        0.0457
      7 O           1.9846   27.8505   12.4483 O.2     1  UNL1       -0.1260
@<TRIPOS>BOND
     1     2     3    1
     2     3     1    1
     3     1     4    1
     4     1     6    1
     5     4     5    1
     6     6     7    2
#	Name:			CHEMBL1643
#	Creating user name:	trannguyen
#	Creation time:		Tue Feb  8 18:26:14 2022


#	Modifying user name:	trannguyen
#	Modification time:	Tue Feb  8 18:26:14 2022

@<TRIPOS>MOLECULE
CHEMBL1643
 22 23 0 0 0
SMALL
GASTEIGER

@<TRIPOS>ATOM
      1 C1*         1.6868   30.1018   10.1484 C.3     1  UNL1        0.2526
      2 O4*         2.9665   29.9972   10.8149 O.3     1  UNL1       -0.3299
      3 C4*         3.3822   28.6109   10.7790 C.3     1  UNL1        0.1757
      4 C3*         2.4260   27.8574    9.8551 C.3     1  UNL1        0.1713
      5 O3*         2.2087   26.5068   10.2560 O.3     1  UNL1       -0.3794
      6 C2*         1.1523   28.6813    9.9398 C.3     1  UNL1        0.1909
      7 O2*         0.3758   28.2477   11.0732 O.3     1  UNL1       -0.3779
      8 H3*         1.9033   26.5254   11.1824 H       1  UNL1        0.2105
      9 H2*        -0.0610   27.4198   10.7907 H       1  UNL1        0.2106
     10 C           2.7127   32.1911    7.5338 C.ar    1  UNL1        0.2368
     11 N           1.6294   31.6133    6.8847 N.ar    1  UNL1       -0.1995
     12 C           1.1395   30.7854    7.7790 C.ar    1  UNL1        0.1994
     13 N           1.8907   30.8397    8.9111 N.ar    1  UNL1       -0.2017
     14 N           2.8954   31.7271    8.7830 N.ar    1  UNL1       -0.1415
     15 N           2.8951   34.1111    6.1217 N.am    1  UNL1       -0.3227
     16 C           3.5744   33.2107    6.9025 C.2     1  UNL1        0.2805
     17 O           4.7904   33.2858    7.0319 O.2     1  UNL1       -0.2670
     18 H           3.4129   34.8443    5.6624 H       1  UNL1        0.1453
     19 H           1.8894   34.0419    6.0251 H       1  UNL1        0.1453
     20 C5*         4.8287   28.5472   10.2869 C.3     1  UNL1        0.1693
     21 O5*         5.2236   29.8180    9.7689 O.3     1  UNL1       -0.3794
     22 H5*         4.5561   30.0528    9.0972 H       1  UNL1        0.2105
@<TRIPOS>BOND
     1    15    16   am
     2    15    18    1
     3    15    19    1
     4    16    17    2
     5    16    10    1
     6    10    11   ar
     7    10    14   ar
     8    11    12   ar
     9    12    13   ar
    10    13    14   ar
    11     1     2    1
    12     1     6    1
    13     1    13    1
    14     2     3    1
    15     3    20    1
    16     3     4    1
    17    20    21    1
    18    21    22    1
    19     4     6    1
    20     4     5    1
    21     5     8    1
    22     6     7    1
    23     7     9    1
#	Name:			CHEMBL1650
#	Creating user name:	trannguyen
#	Creation time:		Tue Feb  8 18:26:14 2022


#	Modifying user name:	trannguyen
#	Modification time:	Tue Feb  8 18:26:14 2022

@<TRIPOS>MOLECULE
CHEMBL1650
 30 33 0 0 0
SMALL
GASTEIGER

@<TRIPOS>ATOM
      1 C           2.9360   32.8816    8.7953 C.3     1  UNL1        0.1429
      2 O           2.1588   32.7051    7.6208 O.3     1  UNL1       -0.3797
      3 C           3.0405   34.3712    9.0982 C.3     1  UNL1        0.0342
      4 C           4.2708   34.4826    9.9871 C.3     1  UNL1        0.0030
      5 C           5.2293   33.3188    9.5862 C.3     1  UNL1        0.0035
      6 C           6.5667   33.9378    9.0870 C.3     1  UNL1        0.0076
      7 C           7.4213   34.4646   10.2519 C.3     1  UNL1        0.0048
      8 C           8.2031   33.3607   10.9401 C.3     1  UNL1        0.0221
      9 C           9.1193   32.6902    9.9509 C.2     1  UNL1       -0.0416
     10 C          10.4368   32.6225   10.2122 C.2     1  UNL1        0.0290
     11 C          11.3749   31.8867    9.3357 C.2     1  UNL1        0.1725
     12 O          12.5659   31.8427    9.6344 O.2     1  UNL1       -0.2914
     13 C          10.8108   31.1391    8.1576 C.3     1  UNL1        0.0695
     14 C           9.5565   31.8227    7.6235 C.3     1  UNL1        0.0123
     15 C           8.4581   32.0876    8.7030 C.3     1  UNL1        0.0222
     16 C           7.8627   30.7360    9.1342 C.3     1  UNL1        0.0045
     17 C           7.3902   33.0849    8.0962 C.3     1  UNL1        0.0610
     18 C           6.4519   32.5059    7.0276 C.2     1  UNL1        0.1506
     19 O           6.8825   31.8612    6.0709 O.2     1  UNL1       -0.2961
     20 C           4.9581   32.8209    7.1321 C.3     1  UNL1        0.0671
     21 C           4.4310   32.4693    8.5438 C.3     1  UNL1        0.0360
     22 C           4.5524   30.9363    8.7058 C.3     1  UNL1        0.0032
     23 H           2.1786   31.7608    7.3744 H       1  UNL1        0.2108
     24 C           2.2566   32.1856   10.0263 C.2     1  UNL1        0.2183
     25 O           1.9218   32.8160   11.0345 O.2     1  UNL1       -0.2897
     26 C           1.9252   30.6968    9.8873 C.3     1  UNL1        0.2744
     27 O           2.3672   29.9392   11.0203 O.3     1  UNL1       -0.4402
     28 C           0.5369   28.6588   10.2382 C.3     1  UNL1        0.1212
     29 C           1.6695   28.7852   11.2162 C.2     1  UNL1        0.3180
     30 O           1.9065   27.9677   12.0886 O.2     1  UNL1       -0.2501
@<TRIPOS>BOND
     1    28    29    1
     2    29    30    2
     3    29    27    1
     4    27    26    1
     5    26    24    1
     6    24    25    2
     7     1     3    1
     8     1    21    1
     9     1    24    1
    10     1     2    1
    11     2    23    1
    12     3     4    1
    13     4     5    1
    14     5     6    1
    15     5    21    1
    16     6     7    1
    17     6    17    1
    18     7     8    1
    19     8     9    1
    20     9    10    2
    21     9    15    1
    22    10    11    1
    23    11    13    1
    24    11    12    2
    25    13    14    1
    26    14    15    1
    27    15    17    1
    28    15    16    1
    29    17    18    1
    30    18    20    1
    31    18    19    2
    32    20    21    1
    33    21    22    1
#	Name:			CHEMBL1651906
#	Creating user name:	trannguyen
#	Creation time:		Tue Feb  8 18:26:14 2022


#	Modifying user name:	trannguyen
#	Modification time:	Tue Feb  8 18:26:14 2022

@<TRIPOS>MOLECULE
CHEMBL1651906
 23 23 0 0 0
SMALL
GASTEIGER

@<TRIPOS>ATOM
      1 C           4.4744   31.2697    8.8482 C.3     1  UNL1        0.1588
      2 C           3.7827   30.0418    9.5242 C.3     1  UNL1        0.2530
      3 O           4.6518   29.0419   10.0273 O.3     1  UNL1       -0.3588
      4 O           2.9325   30.4573   10.5936 O.3     1  UNL1       -0.3267
      5 C           1.8194   31.2647   10.1691 C.3     1  UNL1        0.1760
      6 C           2.3281   32.5342    9.4658 C.3     1  UNL1        0.1686
      7 O           2.9401   33.3986   10.4371 O.3     1  UNL1       -0.3794
      8 C           3.3676   32.2411    8.3681 C.3     1  UNL1        0.1625
      9 O           2.7216   31.7147    7.2075 O.3     1  UNL1       -0.3801
     10 H           5.5369   29.4327   10.1368 H       1  UNL1        0.2130
     11 H           3.4006   32.8242   11.0834 H       1  UNL1        0.2105
     12 H           2.2523   32.4522    6.7727 H       1  UNL1        0.2105
     13 C           9.0126   32.6920   10.2105 C.3     1  UNL1        0.1478
     14 N           7.5738   32.6993   10.3808 N.am    1  UNL1       -0.1280
     15 C           6.7853   32.0043    9.4744 C.2     1  UNL1        0.3255
     16 O           7.2524   31.4053    8.4949 O.2     1  UNL1       -0.2507
     17 N           5.4356   31.9670    9.7299 N.am    1  UNL1       -0.2821
     18 H           5.0766   32.7866   10.2302 H       1  UNL1        0.1512
     19 N           7.0138   33.0894   11.6122 N.2     1  UNL1        0.0534
     20 O           7.0557   32.2071   12.4856 O.2     1  UNL1       -0.1256
     21 C           0.7973   30.4519    9.3577 C.3     1  UNL1        0.1693
     22 O          -0.0543   31.3372    8.6294 O.3     1  UNL1       -0.3794
     23 H          -0.3802   32.0021    9.2678 H       1  UNL1        0.2105
@<TRIPOS>BOND
     1    13    14    1
     2    14    19    1
     3    14    15   am
     4    19    20    2
     5    15    16    2
     6    15    17   am
     7    17     1    1
     8    17    18    1
     9     1     2    1
    10     1     8    1
    11     2     3    1
    12     2     4    1
    13     3    10    1
    14     4     5    1
    15     5    21    1
    16     5     6    1
    17    21    22    1
    18    22    23    1
    19     6     8    1
    20     6     7    1
    21     7    11    1
    22     8     9    1
    23     9    12    1
#	Name:			CHEMBL165790
#	Creating user name:	trannguyen
#	Creation time:		Tue Feb  8 18:26:14 2022


#	Modifying user name:	trannguyen
#	Modification time:	Tue Feb  8 18:26:14 2022

@<TRIPOS>MOLECULE
CHEMBL165790
 21 23 0 0 0
SMALL
GASTEIGER

@<TRIPOS>ATOM
      1 C           8.6264   32.8634    0.6011 C.ar    1  UNL1        0.1414
      2 C           8.3105   34.1290    1.0996 C.ar    1  UNL1        0.0372
      3 C           7.3734   34.2680    2.1242 C.ar    1  UNL1        0.0094
      4 C           6.7774   33.1339    2.6824 C.ar    1  UNL1        0.0737
      5 C           5.7723   33.2667    3.7525 C.ar    1  UNL1        0.2015
      6 O           5.4515   34.3884    4.1410 O.2     1  UNL1       -0.2864
      7 C           5.1846   32.0058    4.3039 C.ar    1  UNL1        0.0766
      8 C           5.6467   30.8657    3.7559 C.ar    1  UNL1        0.1826
      9 O           6.5772   30.7295    2.7504 O.2     1  UNL1       -0.4501
     10 C           7.1252   31.8699    2.2259 C.ar    1  UNL1        0.1515
     11 C           8.0566   31.7304    1.1918 C.ar    1  UNL1        0.0744
     12 C           4.1724   31.9872    5.3985 C.ar    1  UNL1        0.0061
     13 C           2.8847   31.4624    5.1968 C.ar    1  UNL1        0.0002
     14 C           1.9345   31.4352    6.2260 C.ar    1  UNL1        0.0000
     15 C           2.2491   31.9402    7.4825 C.ar    1  UNL1        0.0000
     16 C           3.5158   32.4660    7.7109 C.ar    1  UNL1        0.0000
     17 C           4.4674   32.4832    6.6828 C.ar    1  UNL1        0.0002
     18 O           9.4917   32.6323   -0.4351 O.3     1  UNL1       -0.4791
     19 C          10.3472   33.0642   -2.6492 C.3     1  UNL1        0.0472
     20 C           9.1950   33.2919   -1.6770 C.3     1  UNL1        0.1661
     21 C           7.8939   32.7118   -2.2203 C.3     1  UNL1        0.0472
@<TRIPOS>BOND
     1    19    20    1
     2    20    21    1
     3    20    18    1
     4    18     1    1
     5     1     2   ar
     6     1    11   ar
     7     2     3   ar
     8     3     4   ar
     9     4     5   ar
    10     4    10   ar
    11     5     6    2
    12     5     7   ar
    13     7    12    1
    14     7     8   ar
    15    12    13   ar
    16    12    17   ar
    17    13    14   ar
    18    14    15   ar
    19    15    16   ar
    20    16    17   ar
    21     8     9   ar
    22     9    10   ar
    23    10    11   ar
#	Name:			CHEMBL165
#	Creating user name:	trannguyen
#	Creation time:		Tue Feb  8 18:26:14 2022


#	Modifying user name:	trannguyen
#	Modification time:	Tue Feb  8 18:26:14 2022

@<TRIPOS>MOLECULE
CHEMBL165
 20 21 0 0 0
SMALL
GASTEIGER

@<TRIPOS>ATOM
      1 C           5.9775   31.1992    9.9408 C.2     1  UNL1        0.0000
      2 C           5.6103   29.9340   10.2047 C.2     1  UNL1        0.0002
      3 C           4.2274   29.4373   10.1159 C.ar    1  UNL1        0.0060
      4 C           3.9013   28.0836   10.2874 C.ar    1  UNL1        0.0368
      5 C           2.5696   27.6740   10.2267 C.ar    1  UNL1        0.1367
      6 O           2.2228   26.3629   10.3826 O.3     1  UNL1       -0.5054
      7 C           1.5453   28.5881   10.0115 C.ar    1  UNL1        0.0732
      8 C           1.8674   29.9308    9.8609 C.ar    1  UNL1        0.1367
      9 O           0.9021   30.8736    9.6579 O.3     1  UNL1       -0.5054
     10 C           3.1916   30.3603    9.9152 C.ar    1  UNL1        0.0368
     11 H           3.0306   25.8414   10.5226 H       1  UNL1        0.2922
     12 H           0.0376   30.4300    9.6411 H       1  UNL1        0.2922
     13 O          11.1767   33.3280   10.3476 O.3     1  UNL1       -0.5055
     14 C           9.9358   32.7789   10.2212 C.ar    1  UNL1        0.1337
     15 C           9.6686   31.7997    9.2713 C.ar    1  UNL1        0.0366
     16 C           8.3785   31.2676    9.1752 C.ar    1  UNL1        0.0031
     17 C           7.3577   31.7014   10.0337 C.ar    1  UNL1        0.0002
     18 C           7.6491   32.6998   10.9742 C.ar    1  UNL1        0.0031
     19 C           8.9365   33.2336   11.0708 C.ar    1  UNL1        0.0366
     20 H          11.7673   32.9122    9.6985 H       1  UNL1        0.2922
@<TRIPOS>BOND
     1    13    14    1
     2    13    20    1
     3    14    15   ar
     4    14    19   ar
     5    15    16   ar
     6    16    17   ar
     7    17     1    1
     8    17    18   ar
     9     1     2    2
    10     2     3    1
    11     3     4   ar
    12     3    10   ar
    13     4     5   ar
    14     5     6    1
    15     5     7   ar
    16     6    11    1
    17     7     8   ar
    18     8     9    1
    19     8    10   ar
    20     9    12    1
    21    18    19   ar
#	Name:			CHEMBL1660
#	Creating user name:	trannguyen
#	Creation time:		Tue Feb  8 18:26:14 2022


#	Modifying user name:	trannguyen
#	Modification time:	Tue Feb  8 18:26:14 2022

@<TRIPOS>MOLECULE
CHEMBL1660
 69 74 0 0 0
SMALL
GASTEIGER

@<TRIPOS>ATOM
      1 C           8.6497   39.0018    8.4731 C.3     1  UNL1        0.1438
      2 C           8.0761   39.4426    7.1273 C.2     1  UNL1        0.0431
      3 C           7.8482   40.6921    6.6904 C.2     1  UNL1        0.1742
      4 O           7.2732   40.9226    5.4714 O.2     1  UNL1       -0.4400
      5 C           7.6434   42.0828    4.6924 C.3     1  UNL1        0.3263
      6 C           6.4769   43.0521    4.6287 C.3     1  UNL1        0.1003
      7 O           8.8666   42.8001    5.1132 O.3     1  UNL1       -0.4429
      8 C           9.8868   42.0919    4.5007 C.ar    1  UNL1        0.1445
      9 C          11.1852   42.0911    4.9785 C.ar    1  UNL1        0.0461
     10 C          11.6279   43.1716    5.9166 C.3     1  UNL1        0.0374
     11 C          11.9377   40.9545    4.6465 C.ar    1  UNL1        0.1355
     12 O          13.1865   40.7578    5.2009 O.3     1  UNL1       -0.5056
     13 C          11.4062   39.8851    3.8442 C.ar    1  UNL1        0.0715
     14 C          11.9342   38.5667    3.8206 C.ar    1  UNL1        0.1500
     15 O          13.1350   38.2711    4.4123 O.3     1  UNL1       -0.5042
     16 C          11.1883   37.4978    3.3156 C.ar    1  UNL1        0.0893
     17 C          10.1679   37.7879    2.4074 C.ar    1  UNL1        0.0708
     18 C           9.6887   39.0897    2.3015 C.ar    1  UNL1        0.1367
     19 O           8.7074   39.4144    1.4084 O.3     1  UNL1       -0.5054
     20 C          10.1821   40.0913    3.1524 C.ar    1  UNL1        0.0456
     21 C           9.4641   41.2341    3.5011 C.ar    1  UNL1        0.0789
     22 C           8.0478   41.5510    3.3603 C.2     1  UNL1        0.2515
     23 O           7.3621   41.4871    2.3564 O.2     1  UNL1       -0.2836
     24 N          11.3783   36.1843    3.8699 N.am    1  UNL1       -0.2782
     25 C          10.2626   35.4793    4.3227 C.2     1  UNL1        0.2456
     26 O           9.1202   35.9454    4.2933 O.2     1  UNL1       -0.2702
     27 C          10.4255   34.0910    4.8960 C.2     1  UNL1        0.0318
     28 C           9.1184   33.3408    4.9632 C.3     1  UNL1        0.0358
     29 C          11.5837   33.6368    5.4067 C.2     1  UNL1       -0.0001
     30 C          11.7763   32.5287    6.3327 C.2     1  UNL1       -0.0047
     31 C          10.9470   32.2930    7.3693 C.2     1  UNL1       -0.0240
     32 C          11.3923   31.6620    8.6712 C.3     1  UNL1        0.0490
     33 C          10.4412   30.5532    9.1179 C.3     1  UNL1        0.0072
     34 C          11.6301   32.7875    9.7507 C.3     1  UNL1        0.1167
     35 O          12.5780   33.7281    9.2280 O.3     1  UNL1       -0.3840
     36 C          10.3738   33.5286   10.3684 C.3     1  UNL1        0.0542
     37 C          10.1117   32.8627   11.7428 C.3     1  UNL1        0.0050
     38 C          10.5127   35.1080   10.5289 C.3     1  UNL1        0.1162
     39 O           9.9917   35.5039   11.8185 O.3     1  UNL1       -0.3843
     40 C           9.7845   36.0926    9.5241 C.3     1  UNL1        0.0672
     41 C           9.2286   35.4239    8.2788 C.3     1  UNL1        0.0062
     42 C          10.6409   37.3950    9.2476 C.3     1  UNL1        0.1736
     43 C          10.1046   38.5092    8.2596 C.3     1  UNL1        0.0717
     44 C          11.0675   39.7248    8.2086 C.3     1  UNL1        0.0066
     45 H          13.3964   41.5033    5.7903 H       1  UNL1        0.2922
     46 H          13.5212   39.1332    4.6797 H       1  UNL1        0.2923
     47 H           8.3745   38.5945    0.9803 H       1  UNL1        0.2922
     48 H          12.2220   36.0752    4.4209 H       1  UNL1        0.1553
     49 H          12.2053   34.0687    8.3942 H       1  UNL1        0.2103
     50 H          10.7119   35.9458   12.3003 H       1  UNL1        0.2103
     51 C           8.4413   39.7861   10.7455 C.3     1  UNL1        0.1745
     52 O           8.5300   40.1102    9.3700 O.3     1  UNL1       -0.3490
     53 C           9.6142   36.6895    1.5989 C.2     1  UNL1        0.1217
     54 N           9.8062   36.5808    0.3196 N.2     1  UNL1       -0.1803
     55 N           9.0767   35.5892   -0.2905 N.pl3   1  UNL1       -0.2299
     56 C           7.6192   35.7165   -0.1006 C.3     1  UNL1        0.1283
     57 C           6.7368   34.4452   -0.1764 C.3     1  UNL1        0.0955
     58 N           7.3245   33.1754    0.3138 N.3     1  UNL1       -0.2710
     59 C           8.6096   33.0471   -0.3939 C.3     1  UNL1        0.0955
     60 C           9.5901   34.2051   -0.1867 C.3     1  UNL1        0.1283
     61 C           7.4293   33.1231    1.7933 C.3     1  UNL1        0.0576
     62 C           6.1284   33.6071    2.4952 C.3     1  UNL1        0.0160
     63 C           5.8174   32.6072    3.6065 C.3     1  UNL1        0.0014
     64 C           6.3619   31.3007    3.0725 C.3     1  UNL1        0.0014
     65 C           7.6666   31.7211    2.4129 C.3     1  UNL1        0.0160
     66 O          12.0271   37.1143    8.9021 O.3     1  UNL1       -0.4521
     67 C          12.9804   37.4584    9.8192 C.2     1  UNL1        0.3174
     68 C          14.2559   36.7327    9.5311 C.3     1  UNL1        0.1212
     69 O          12.8304   38.1123   10.8473 O.2     1  UNL1       -0.2501
@<TRIPOS>BOND
     1    51    52    1
     2    52     1    1
     3     1     2    1
     4     1    43    1
     5     2     3    2
     6     3     4    1
     7     4     5    1
     8     5     7    1
     9     5    22    1
    10     5     6    1
    11     7     8    1
    12     8     9   ar
    13     8    21   ar
    14     9    11   ar
    15     9    10    1
    16    11    13   ar
    17    11    12    1
    18    12    45    1
    19    13    14   ar
    20    13    20   ar
    21    14    16   ar
    22    14    15    1
    23    15    46    1
    24    16    17   ar
    25    16    24    1
    26    17    18   ar
    27    17    53    1
    28    53    54    2
    29    54    55    1
    30    55    56    1
    31    55    60    1
    32    56    57    1
    33    57    58    1
    34    58    61    1
    35    58    59    1
    36    61    62    1
    37    61    65    1
    38    62    63    1
    39    63    64    1
    40    64    65    1
    41    59    60    1
    42    18    20   ar
    43    18    19    1
    44    19    47    1
    45    20    21   ar
    46    21    22    1
    47    22    23    2
    48    24    25   am
    49    24    48    1
    50    25    27    1
    51    25    26    2
    52    27    29    2
    53    27    28    1
    54    29    30    1
    55    30    31    2
    56    31    32    1
    57    32    34    1
    58    32    33    1
    59    34    36    1
    60    34    35    1
    61    35    49    1
    62    36    38    1
    63    36    37    1
    64    38    40    1
    65    38    39    1
    66    39    50    1
    67    40    42    1
    68    40    41    1
    69    42    43    1
    70    42    66    1
    71    66    67    1
    72    67    68    1
    73    67    69    2
    74    43    44    1
#	Name:			CHEMBL1670
#	Creating user name:	trannguyen
#	Creation time:		Tue Feb  8 18:26:14 2022


#	Modifying user name:	trannguyen
#	Modification time:	Tue Feb  8 18:26:14 2022

@<TRIPOS>MOLECULE
CHEMBL1670
 18 19 0 0 0
SMALL
GASTEIGER

@<TRIPOS>ATOM
      1 C           2.6687   31.8830    8.5847 C.3     1  UNL1        0.0758
      2 CL          5.7528   32.1974    3.3679 Cl      1  UNL1       -0.0822
      3 C           4.8823   32.1135    4.8490 C.ar    1  UNL1        0.0577
      4 C           3.5533   31.6953    4.8522 C.ar    1  UNL1        0.0111
      5 C           2.8482   31.6180    6.0573 C.ar    1  UNL1       -0.0030
      6 C           3.4623   31.9670    7.2714 C.ar    1  UNL1       -0.0159
      7 C           4.8013   32.3985    7.2414 C.ar    1  UNL1       -0.0030
      8 C           5.5087   32.4639    6.0387 C.ar    1  UNL1        0.0111
      9 C           2.8490   30.5019    9.2391 C.ar    1  UNL1       -0.0054
     10 C           4.1395   30.0177    9.5463 C.ar    1  UNL1       -0.0030
     11 C           4.3300   28.7487   10.0980 C.ar    1  UNL1       -0.0003
     12 C           3.2376   27.9341   10.3632 C.ar    1  UNL1        0.0008
     13 C           1.9524   28.3886   10.0756 C.ar    1  UNL1        0.0111
     14 C           1.7561   29.6567    9.5138 C.ar    1  UNL1        0.0541
     15 CL          0.1210   30.1139    9.1842 Cl      1  UNL1       -0.0826
     16 C           2.9622   33.0924    9.5183 C.3     1  UNL1        0.1666
     17 CL          3.1110   34.6311    8.5996 Cl      1  UNL1       -0.0964
     18 CL          1.6645   33.3329   10.7374 Cl      1  UNL1       -0.0964
@<TRIPOS>BOND
     1     2     3    1
     2     3     4   ar
     3     3     8   ar
     4     4     5   ar
     5     5     6   ar
     6     6     1    1
     7     6     7   ar
     8     1     9    1
     9     1    16    1
    10     9    10   ar
    11     9    14   ar
    12    10    11   ar
    13    11    12   ar
    14    12    13   ar
    15    13    14   ar
    16    14    15    1
    17    16    17    1
    18    16    18    1
    19     7     8   ar
#	Name:			CHEMBL167911
#	Creating user name:	trannguyen
#	Creation time:		Tue Feb  8 18:26:14 2022


#	Modifying user name:	trannguyen
#	Modification time:	Tue Feb  8 18:26:14 2022

@<TRIPOS>MOLECULE
CHEMBL167911
 11 10 0 0 0
SMALL
GASTEIGER

@<TRIPOS>ATOM
      1 P           2.5501   30.3240    9.9008 P.3     1  UNL1        0.5349
      2 O           1.9966   31.5110   10.7033 O.2     1  UNL1       -0.2152
      3 C           1.2048   28.3871   11.0947 C.3     1  UNL1        0.1873
      4 O           2.2632   29.3075   11.2710 O.3     1  UNL1       -0.2609
      5 O           4.1724   30.2028   10.1735 O.3     1  UNL1       -0.2609
      6 C           4.7592   28.9161   10.1258 C.3     1  UNL1        0.1873
      7 O           2.8314   31.3210    8.5567 O.2     1  UNL1       -0.3975
      8 C           2.1090   31.3593    7.3840 C.2     1  UNL1        0.2058
      9 C           2.6122   31.7646    6.2211 C.2     1  UNL1        0.1522
     10 CL          4.2588   32.2721    6.0684 Cl      1  UNL1       -0.0665
     11 CL          1.6128   31.8593    4.8171 Cl      1  UNL1       -0.0665
@<TRIPOS>BOND
     1     3     4    1
     2     4     1    1
     3     1     2    2
     4     1     5    1
     5     1     7    1
     6     5     6    1
     7     7     8    1
     8     8     9    2
     9     9    10    1
    10     9    11    1
#	Name:			CHEMBL1679
#	Creating user name:	trannguyen
#	Creation time:		Tue Feb  8 18:26:14 2022


#	Modifying user name:	trannguyen
#	Modification time:	Tue Feb  8 18:26:14 2022

@<TRIPOS>MOLECULE
CHEMBL1679
 42 44 0 0 0
SMALL
GASTEIGER

@<TRIPOS>ATOM
      1 N           5.7704   32.6727    2.9370 N.pl3   0  UNK0       -0.3313
      2 H           5.6488   33.6792    2.7208 H       0  UNK0        0.1469
      3 C           4.8965   32.2964    3.9691 C.ar    0  UNK0        0.0447
      4 C           5.1987   32.6797    5.2813 C.ar    0  UNK0        0.0144
      5 C           4.3365   32.3693    6.3438 C.ar    0  UNK0        0.0058
      6 C           3.1591   31.6509    6.1093 C.ar    0  UNK0        0.0534
      7 C           2.8898   31.1981    4.8146 C.ar    0  UNK0        0.0058
      8 C           3.7598   31.5069    3.7636 C.ar    0  UNK0        0.0144
      9 C           2.1580   31.3763    7.1847 C.2     0  UNK0        0.2462
     10 O           1.1107   30.7898    6.9292 O.2     0  UNK0       -0.2701
     11 N           2.4449   31.8836    8.4333 N.am    1  GLU1       -0.2932
     12 H           3.3493   32.3085    8.5992 H       1  GLU1        0.1502
     13 CA          1.5696   31.6993    9.5950 C.3     1  GLU1        0.1720
     14 C           1.3334   33.0558   10.2902 C.2     1  GLU1        0.3318
     15 O           2.1723   33.7089   10.8775 O.2     1  GLU1       -0.2485
     16 OXT         0.0397   33.4646   10.2047 O.3     1  GLU1       -0.4791
     17 HXT        -0.5305   32.8042    9.7647 H       1  GLU1        0.2951
     18 CB          2.0897   30.6267   10.5546 C.3     1  GLU1        0.0427
     19 CG          1.9031   29.1940   10.0489 C.3     1  GLU1        0.1116
     20 CD          1.3609   28.3330   11.1347 C.2     1  GLU1        0.3139
     21 OE1         2.0023   27.9182   12.1038 O.2     1  GLU1       -0.2503
     22 OE2         0.0848   27.9832   10.9731 O.3     1  GLU1       -0.4802
     23 HE2        -0.1356   27.4104   11.7377 H       1  GLU1        0.2951
     24 C           7.2006   32.4213    3.1527 C.3     0  UNK0        0.1092
     25 N          10.3644   36.8867   -2.3764 N.pl3   0  UNK0       -0.3289
     26 C          10.0463   35.8292   -1.5916 C.ar    0  UNK0        0.1951
     27 N          10.1013   34.6252   -2.0447 N.ar    0  UNK0       -0.1758
     28 C           9.7958   33.6075   -1.1631 C.ar    0  UNK0        0.2979
     29 O          10.1878   32.4617   -1.3354 O.2     0  UNK0       -0.2636
     30 C           8.9628   33.9557    0.0628 C.ar    0  UNK0        0.1425
     31 C           9.0009   35.2549    0.4475 C.ar    0  UNK0        0.1267
     32 N           9.6490   36.1741   -0.3397 N.ar    0  UNK0       -0.3146
     33 H           9.2976   37.1155   -0.2301 H       0  UNK0        0.1698
     34 N           8.3420   35.6855    1.5823 N.pl3   0  UNK0       -0.3170
     35 C           7.6074   34.7584    2.4331 C.3     0  UNK0        0.1103
     36 C           8.1198   33.2987    2.2717 C.3     0  UNK0        0.1194
     37 N           8.2873   32.9742    0.8183 N.am    0  UNK0       -0.2434
     38 C           7.9295   31.7601    0.2546 C.2     0  UNK0        0.3072
     39 O           7.3965   30.8076    0.8158 O.2     0  UNK0       -0.2646
     40 H          10.7565   36.5652   -3.2591 H       0  UNK0        0.1451
     41 H          10.9861   37.5563   -1.9405 H       0  UNK0        0.1451
     42 H           8.7317   36.5099    2.0281 H       0  UNK0        0.1482
@<TRIPOS>BOND
     1    25    26    1
     2    25    40    1
     3    25    41    1
     4    26    27   ar
     5    26    32   ar
     6    27    28   ar
     7    28    29    2
     8    28    30   ar
     9    30    31   ar
    10    30    37    1
    11    31    32   ar
    12    31    34    1
    13    32    33    1
    14    34    35    1
    15    34    42    1
    16    35    36    1
    17    36    24    1
    18    36    37    1
    19    24     1    1
    20     1     3    1
    21     1     2    1
    22     3     4   ar
    23     3     8   ar
    24     4     5   ar
    25     5     6   ar
    26     6     9    1
    27     6     7   ar
    28     9    10    2
    29     9    11   am
    30    11    13    1
    31    11    12    1
    32    13    18    1
    33    13    14    1
    34    18    19    1
    35    19    20    1
    36    20    21    2
    37    20    22    1
    38    22    23    1
    39    14    15    2
    40    14    16    1
    41    16    17    1
    42     7     8   ar
    43    37    38   am
    44    38    39    2
#	Name:			CHEMBL1687
#	Creating user name:	trannguyen
#	Creation time:		Tue Feb  8 18:26:14 2022


#	Modifying user name:	trannguyen
#	Modification time:	Tue Feb  8 18:26:14 2022

@<TRIPOS>MOLECULE
CHEMBL1687
 47 53 0 0 0
SMALL
GASTEIGER

@<TRIPOS>ATOM
      1 C          10.7489   32.1715    7.6659 C.ar    1  UNL1        0.1726
      2 C          12.1164   31.9875    8.0124 C.ar    1  UNL1        0.0356
      3 C          12.9383   33.1037    8.1826 C.ar    1  UNL1       -0.0203
      4 C          12.3279   34.3505    8.2474 C.ar    1  UNL1       -0.0081
      5 C          10.9348   34.4014    8.3832 C.ar    1  UNL1        0.0374
      6 C          10.1919   33.5347    7.5213 C.ar    1  UNL1        0.1788
      7 O           9.4290   34.3503    5.9486 O.3     1  UNL1       -0.4474
      8 C           8.4556   34.4465    4.6934 C.ar    1  UNL1        0.1785
      9 C           7.0938   34.1350    4.7400 C.ar    1  UNL1        0.0366
     10 C           6.5969   33.3395    3.7176 C.ar    1  UNL1       -0.0129
     11 C           7.1553   33.5029    2.4435 C.ar    1  UNL1       -0.0007
     12 C           8.2900   34.2983    2.2866 C.ar    1  UNL1        0.0395
     13 C           8.9821   34.7240    3.4197 C.ar    1  UNL1        0.1683
     14 O          10.1413   35.3934    3.1752 O.3     1  UNL1       -0.5028
     15 C           5.9854   31.9899    4.0868 C.3     1  UNL1        0.0864
     16 C           4.8347   31.7803    5.1253 C.3     1  UNL1        0.0890
     17 C           4.8698   32.4666    6.5092 C.ar    1  UNL1        0.0610
     18 C           3.6726   32.9533    7.0856 C.ar    1  UNL1       -0.0088
     19 C           3.6623   33.4955    8.3839 C.ar    1  UNL1        0.0361
     20 C           4.7946   33.4794    9.1916 C.ar    1  UNL1        0.1749
     21 C           5.9586   32.9053    8.6894 C.ar    1  UNL1        0.2028
     22 O           7.0460   32.7303    9.5081 O.3     1  UNL1       -0.5009
     23 C           6.0277   32.4860    7.3409 C.ar    1  UNL1        0.1827
     24 O           7.2416   32.0436    6.8501 O.3     1  UNL1       -0.4505
     25 C           8.2542   32.9922    6.6823 C.ar    1  UNL1        0.1454
     26 C           8.2399   34.6827    7.4013 C.ar    1  UNL1        0.0372
     27 C           9.5983   35.8555    7.0492 C.ar    1  UNL1       -0.0011
     28 C          11.0406   35.2950    6.0619 C.ar    1  UNL1       -0.0203
     29 C          11.0505   33.6172    5.3230 C.ar    1  UNL1       -0.0011
     30 C           9.6291   32.4874    5.5656 C.ar    1  UNL1        0.0372
     31 C          12.3931   35.9571    6.2870 C.3     1  UNL1        0.0468
     32 C          13.0235   35.5881    7.6828 C.3     1  UNL1        0.0843
     33 N          14.4957   35.4325    7.5401 N.3     1  UNL1       -0.2685
     34 C          15.1800   36.7140    7.6957 C.3     1  UNL1        0.0899
     35 C          15.0448   34.4262    8.4657 C.3     1  UNL1        0.0771
     36 C          14.4370   33.0356    8.1913 C.3     1  UNL1        0.0435
     37 C           2.3512   32.8854    6.3736 C.3     1  UNL1        0.0874
     38 C           2.3095   31.7284    5.3967 C.3     1  UNL1        0.1138
     39 N           3.4272   31.8477    4.3542 N.4     1  UNL1        0.3056
     40 C           3.2814   33.1005    3.5233 C.3     1  UNL1        0.1708
     41 C           3.2629   30.6124    3.4480 C.3     1  UNL1        0.1708
     42 H          10.3869   35.8171    4.0126 H       1  UNL1        0.2923
     43 H           7.6624   32.1274    9.0460 H       1  UNL1        0.2924
     44 C          10.1754   30.1023    8.7547 C.3     1  UNL1        0.2526
     45 O           9.8540   31.1190    7.8095 O.3     1  UNL1       -0.4684
     46 O           4.5874   34.0021   10.4379 O.3     1  UNL1       -0.4683
     47 C           3.3837   34.7374   10.6172 C.3     1  UNL1        0.2526
@<TRIPOS>UNITY_ATOM_ATTR
39 1
charge 1
@<TRIPOS>BOND
     1    44    45    1
     2    45     1    1
     3     1     2   ar
     4     1     6   ar
     5     2     3   ar
     6     3     4   ar
     7     3    36    1
     8     4     5   ar
     9     4    32    1
    10     5     6   ar
    11     6     7    1
    12     7     8    1
    13     8     9   ar
    14     8    13   ar
    15     9    10   ar
    16    10    11   ar
    17    10    15    1
    18    11    12   ar
    19    12    13   ar
    20    13    14    1
    21    14    42    1
    22    15    16    1
    23    16    17    1
    24    16    39    1
    25    17    18   ar
    26    17    23   ar
    27    18    19   ar
    28    18    37    1
    29    19    20   ar
    30    20    21   ar
    31    20    46    1
    32    46    47    1
    33    21    23   ar
    34    21    22    1
    35    22    43    1
    36    23    24    1
    37    24    25    1
    38    25    26   ar
    39    25    30   ar
    40    26    27   ar
    41    27    28   ar
    42    28    29   ar
    43    28    31    1
    44    29    30   ar
    45    31    32    1
    46    32    33    1
    47    33    35    1
    48    33    34    1
    49    35    36    1
    50    37    38    1
    51    38    39    1
    52    39    40    1
    53    39    41    1
#	Name:			CHEMBL1697694
#	Creating user name:	trannguyen
#	Creation time:		Tue Feb  8 18:26:14 2022


#	Modifying user name:	trannguyen
#	Modification time:	Tue Feb  8 18:26:14 2022

@<TRIPOS>MOLECULE
CHEMBL1697694
 23 27 0 0 0
SMALL
GASTEIGER

@<TRIPOS>ATOM
      1 C           5.7743   31.6555    8.1377 C.ar    1  UNL1        0.1443
      2 C           5.7586   30.9495    9.3535 C.ar    1  UNL1        0.0738
      3 C           4.5550   30.4423    9.7909 C.ar    1  UNL1        0.1449
      4 C           3.3619   30.6201    9.0786 C.ar    1  UNL1        0.0580
      5 C           3.3711   31.3120    7.8915 C.ar    1  UNL1        0.1507
      6 O           2.1367   31.4898    7.2392 O.2     1  UNL1       -0.4211
      7 C           2.0265   32.1618    6.0226 C.ar    1  UNL1        0.3482
      8 O           0.9454   32.3043    5.4715 O.2     1  UNL1       -0.2444
      9 C           3.2919   32.6569    5.4941 C.ar    1  UNL1        0.1069
     10 C           4.4812   32.5227    6.0923 C.ar    1  UNL1       -0.0068
     11 C           4.5777   31.8259    7.3804 C.ar    1  UNL1        0.0648
     12 C           5.6218   33.1216    5.3327 C.3     1  UNL1        0.0350
     13 C           4.9934   33.6911    4.0663 C.3     1  UNL1        0.0740
     14 C           3.5364   33.3783    4.2410 C.2     1  UNL1        0.1793
     15 O           2.6779   33.6881    3.4309 O.2     1  UNL1       -0.2911
     16 C           2.2853   30.1087    9.9392 C.3     1  UNL1        0.1376
     17 C           1.1235   29.2456    9.6872 C.2     1  UNL1        0.0259
     18 C           1.1413   28.3421   10.6783 C.2     1  UNL1        0.1722
     19 O           2.2873   28.3662   11.5023 O.2     1  UNL1       -0.4398
     20 C           3.1606   29.0260   10.5756 C.3     1  UNL1        0.3492
     21 O           4.3798   29.6909   10.9548 O.3     1  UNL1       -0.4427
     22 C           8.0734   31.3479    7.5678 C.3     1  UNL1        0.2525
     23 O           6.9245   32.1882    7.6097 O.3     1  UNL1       -0.4712
@<TRIPOS>BOND
     1    22    23    1
     2    23     1    1
     3     1     2   ar
     4     1    11   ar
     5     2     3   ar
     6     3     4   ar
     7     3    21    1
     8     4     5   ar
     9     4    16    1
    10     5     6   ar
    11     5    11   ar
    12     6     7   ar
    13     7     9   ar
    14     7     8    2
    15     9    10   ar
    16     9    14    1
    17    10    11   ar
    18    10    12    1
    19    12    13    1
    20    13    14    1
    21    14    15    2
    22    16    17    1
    23    16    20    1
    24    17    18    2
    25    18    19    1
    26    19    20    1
    27    20    21    1
#	Name:			CHEMBL16
#	Creating user name:	trannguyen
#	Creation time:		Tue Feb  8 18:26:14 2022


#	Modifying user name:	trannguyen
#	Modification time:	Tue Feb  8 18:26:14 2022

@<TRIPOS>MOLECULE
CHEMBL16
 21 23 0 0 0
SMALL
GASTEIGER

@<TRIPOS>ATOM
      1 O          -0.1954   31.0727    8.6931 O.2     1  UNL1       -0.2704
      2 C           0.6991   31.7984    9.1085 C.2     1  UNL1        0.2729
      3 N           0.4851   32.9624    9.8442 N.am    1  UNL1       -0.1294
      4 C           1.6677   33.4071   10.0743 C.2     1  UNL1        0.2728
      5 O           1.8889   34.5632   10.6878 O.2     1  UNL1       -0.4832
      6 N           2.7558   32.7243    9.6670 N.pl3   1  UNL1       -0.2798
      7 C           2.2574   31.6082    8.8443 C.3     1  UNL1        0.1674
      8 H           1.0277   34.9380   10.9390 H       1  UNL1        0.2948
      9 H           3.5048   33.2926    9.2969 H       1  UNL1        0.1518
     10 C           2.6930   31.8587    7.3910 C.ar    1  UNL1        0.0060
     11 C           2.0464   31.1677    6.3434 C.ar    1  UNL1       -0.0020
     12 C           2.4268   31.3513    5.0125 C.ar    1  UNL1       -0.0002
     13 C           3.4548   32.2344    4.6986 C.ar    1  UNL1       -0.0000
     14 C           4.0987   32.9362    5.7136 C.ar    1  UNL1       -0.0002
     15 C           3.7234   32.7512    7.0477 C.ar    1  UNL1       -0.0020
     16 C           2.7201   30.2510    9.3915 C.ar    1  UNL1        0.0060
     17 C           4.0959   29.9961    9.5573 C.ar    1  UNL1       -0.0020
     18 C           4.5489   28.7652   10.0371 C.ar    1  UNL1       -0.0002
     19 C           3.6378   27.7638   10.3590 C.ar    1  UNL1       -0.0000
     20 C           2.2737   27.9918   10.2018 C.ar    1  UNL1       -0.0002
     21 C           1.8179   29.2228    9.7226 C.ar    1  UNL1       -0.0020
@<TRIPOS>BOND
     1     1     2    2
     2     2     3    1
     3     2     7    1
     4     3     4    2
     5     4     5    1
     6     4     6    1
     7     5     8    1
     8     6     7    1
     9     6     9    1
    10     7    10    1
    11     7    16    1
    12    10    11   ar
    13    10    15   ar
    14    11    12   ar
    15    12    13   ar
    16    13    14   ar
    17    14    15   ar
    18    16    17   ar
    19    16    21   ar
    20    17    18   ar
    21    18    19   ar
    22    19    20   ar
    23    20    21   ar
#	Name:			CHEMBL1712923
#	Creating user name:	trannguyen
#	Creation time:		Tue Feb  8 18:26:14 2022


#	Modifying user name:	trannguyen
#	Modification time:	Tue Feb  8 18:26:14 2022

@<TRIPOS>MOLECULE
CHEMBL1712923
 20 21 0 0 0
SMALL
GASTEIGER

@<TRIPOS>ATOM
      1 N           3.8847   35.1459   10.7607 N.pl3   1  UNL1       -0.3273
      2 C           3.5824   34.2007    9.7990 C.ar    1  UNL1        0.2174
      3 N           3.5949   34.5883    8.5370 N.ar    1  UNL1       -0.1815
      4 C           3.3171   33.6414    7.6572 C.ar    1  UNL1        0.2174
      5 N           3.2432   34.0104    6.3261 N.pl3   1  UNL1       -0.3273
      6 N           3.0730   32.3760    7.9541 N.ar    1  UNL1       -0.1947
      7 C           3.1129   32.0822    9.2531 C.ar    1  UNL1        0.1688
      8 N           3.3318   32.9723   10.2167 N.ar    1  UNL1       -0.1947
      9 H           4.4108   35.8995   10.3373 H       1  UNL1        0.1452
     10 H           4.3036   34.6960   11.5631 H       1  UNL1        0.1452
     11 H           3.0006   34.9920    6.2750 H       1  UNL1        0.1452
     12 H           2.6113   33.3834    5.8443 H       1  UNL1        0.1452
     13 C           2.8124   30.6885    9.6364 C.ar    1  UNL1        0.0474
     14 C           1.4590   30.2804    9.7239 C.ar    1  UNL1        0.0153
     15 C           1.1062   28.9793   10.0868 C.ar    1  UNL1        0.0578
     16 CL         -0.5519   28.5329   10.1769 Cl      1  UNL1       -0.0822
     17 C           2.0871   28.0414   10.3786 C.ar    1  UNL1        0.0123
     18 C           3.4280   28.4087   10.2964 C.ar    1  UNL1        0.0124
     19 C           3.7921   29.7135    9.9243 C.ar    1  UNL1        0.0607
     20 CL          5.4970   30.0018    9.7987 Cl      1  UNL1       -0.0821
@<TRIPOS>BOND
     1     1     2    1
     2     1     9    1
     3     1    10    1
     4     2     3   ar
     5     2     8   ar
     6     3     4   ar
     7     4     5    1
     8     4     6   ar
     9     5    11    1
    10     5    12    1
    11     6     7   ar
    12     7    13    1
    13     7     8   ar
    14    13    14   ar
    15    13    19   ar
    16    14    15   ar
    17    15    16    1
    18    15    17   ar
    19    17    18   ar
    20    18    19   ar
    21    19    20    1
#	Name:			CHEMBL17157
#	Creating user name:	trannguyen
#	Creation time:		Tue Feb  8 18:26:14 2022


#	Modifying user name:	trannguyen
#	Modification time:	Tue Feb  8 18:26:14 2022

@<TRIPOS>MOLECULE
CHEMBL17157
 37 40 0 0 0
SMALL
GASTEIGER

@<TRIPOS>ATOM
      1 N           9.4615   32.4627    6.3614 N.3     1  UNL1       -0.2727
      2 C           8.1059   32.1249    6.8099 C.3     1  UNL1        0.0722
      3 C           6.9926   33.0966    6.3625 C.3     1  UNL1        0.0204
      4 C           7.0128   33.5164    4.8651 C.3     1  UNL1        0.0353
      5 C           8.4829   33.8737    4.5311 C.3     1  UNL1        0.0204
      6 C           9.4763   32.7816    4.9286 C.3     1  UNL1        0.0722
      7 C           6.3216   32.5037    3.8491 C.3     1  UNL1        0.1256
      8 O           6.7330   31.1708    4.2105 O.3     1  UNL1       -0.3786
      9 H           6.4720   31.0189    5.1238 H       1  UNL1        0.2111
     10 C           4.7606   32.5184    3.9250 C.ar    1  UNL1        0.0056
     11 C           4.0370   33.7154    4.1055 C.ar    1  UNL1       -0.0017
     12 C           2.6380   33.7537    4.1902 C.ar    1  UNL1       -0.0002
     13 C           1.9087   32.5661    4.1284 C.ar    1  UNL1       -0.0000
     14 C           2.5833   31.3718    3.9561 C.ar    1  UNL1       -0.0002
     15 C           3.9832   31.3405    3.8271 C.ar    1  UNL1       -0.0017
     16 C           6.8739   32.6981    2.4022 C.ar    1  UNL1        0.0056
     17 C           6.5333   33.8627    1.6770 C.ar    1  UNL1       -0.0017
     18 C           6.9441   34.0781    0.3606 C.ar    1  UNL1       -0.0002
     19 C           7.7267   33.1276   -0.2781 C.ar    1  UNL1       -0.0000
     20 C           8.0570   31.9542    0.3904 C.ar    1  UNL1       -0.0002
     21 C           7.6150   31.7264    1.7034 C.ar    1  UNL1       -0.0017
     22 C          10.0644   33.4887    7.2188 C.3     1  UNL1        0.0722
     23 C          10.0520   33.1406    8.7124 C.3     1  UNL1        0.0202
     24 C           9.7163   34.3498    9.5828 C.3     1  UNL1        0.0352
     25 C           8.7281   34.0270   10.7192 C.3     1  UNL1        0.1328
     26 O           9.3887   33.1894   11.6699 O.3     1  UNL1       -0.3801
     27 H           8.8193   32.4232   11.8517 H       1  UNL1        0.2108
     28 C           4.9390   32.2784    9.4579 C.ar    1  UNL1       -0.0228
     29 C           5.1466   33.6699    9.4564 C.ar    1  UNL1       -0.0045
     30 C           6.3699   34.2200    9.8541 C.ar    1  UNL1       -0.0023
     31 C           7.4227   33.3995   10.2842 C.ar    1  UNL1        0.0042
     32 C           7.2234   32.0189   10.2795 C.ar    1  UNL1       -0.0023
     33 C           6.0089   31.4731    9.8722 C.ar    1  UNL1       -0.0045
     34 C           2.4306   32.4402    9.6777 C.3     1  UNL1        0.0044
     35 C           3.5964   31.6739    9.0209 C.3     1  UNL1        0.0189
     36 C           3.5188   30.1914    9.4387 C.3     1  UNL1        0.0044
     37 C           3.3836   31.7329    7.4901 C.3     1  UNL1        0.0044
@<TRIPOS>BOND
     1    34    35    1
     2    35    36    1
     3    35    37    1
     4    35    28    1
     5    28    29   ar
     6    28    33   ar
     7    29    30   ar
     8    30    31   ar
     9    31    25    1
    10    31    32   ar
    11    25    26    1
    12    25    24    1
    13    26    27    1
    14    24    23    1
    15    23    22    1
    16    22     1    1
    17     1     2    1
    18     1     6    1
    19     2     3    1
    20     3     4    1
    21     4     7    1
    22     4     5    1
    23     7     8    1
    24     7    10    1
    25     7    16    1
    26     8     9    1
    27    10    11   ar
    28    10    15   ar
    29    11    12   ar
    30    12    13   ar
    31    13    14   ar
    32    14    15   ar
    33    16    17   ar
    34    16    21   ar
    35    17    18   ar
    36    18    19   ar
    37    19    20   ar
    38    20    21   ar
    39     5     6    1
    40    32    33   ar
#	Name:			CHEMBL1726
#	Creating user name:	trannguyen
#	Creation time:		Tue Feb  8 18:26:14 2022


#	Modifying user name:	trannguyen
#	Modification time:	Tue Feb  8 18:26:14 2022

@<TRIPOS>MOLECULE
CHEMBL1726
 29 30 0 0 0
SMALL
GASTEIGER

@<TRIPOS>ATOM
      1 C           3.8787   32.4487    6.9204 C.2     1  UNL1        0.0707
      2 C           5.1677   32.7956    6.6646 C.2     1  UNL1        0.0283
      3 C           5.8745   32.5694    5.3380 C.3     1  UNL1        0.0470
      4 N           5.9370   33.3699    7.6516 N.pl3   1  UNL1       -0.3192
      5 C           5.4285   33.9112    8.8208 C.2     1  UNL1        0.0283
      6 C           6.4114   34.7272    9.6225 C.3     1  UNL1        0.0470
      7 C           4.1370   33.6774    9.1647 C.2     1  UNL1        0.0707
      8 C           3.3009   32.6818    8.3352 C.3     1  UNL1        0.0827
      9 H           6.8765   33.6581    7.3843 H       1  UNL1        0.1516
     10 C           3.0457   31.3646    9.1072 C.ar    1  UNL1        0.0046
     11 C           4.1553   30.5332    9.3908 C.ar    1  UNL1       -0.0021
     12 C           4.0156   29.3061   10.0605 C.ar    1  UNL1       -0.0002
     13 C           2.7645   28.8652   10.4770 C.ar    1  UNL1        0.0015
     14 C           1.6505   29.6527   10.2233 C.ar    1  UNL1        0.0196
     15 C           1.7942   30.8798    9.5457 C.ar    1  UNL1        0.0885
     16 N           0.5450   31.5875    9.3384 N.pl3   1  UNL1       -0.1856
     17 O          -0.3045   31.0350    8.6292 O.2     1  UNL1       -0.1725
     18 O           0.4885   32.7501    9.7678 O.co2   1  UNL1       -0.7770
     19 C           3.0266   31.9696    5.7855 C.2     1  UNL1        0.3388
     20 O           2.7654   30.8131    5.5443 O.2     1  UNL1       -0.2452
     21 C           2.5108   32.6953    3.6441 C.3     1  UNL1        0.2559
     22 O           2.6050   33.0229    5.0352 O.3     1  UNL1       -0.4415
     23 C           3.4941   34.5282   10.2206 C.2     1  UNL1        0.3387
     24 O           3.5883   34.3246   11.4076 O.2     1  UNL1       -0.2452
     25 O           2.8163   35.5790    9.6742 O.3     1  UNL1       -0.4456
     26 C           1.6115   36.0108   10.3670 C.3     1  UNL1        0.2086
     27 C           1.1620   37.4023    9.8794 C.3     1  UNL1        0.0439
     28 C           1.2214   38.4873   10.9625 C.3     1  UNL1        0.0038
     29 C           1.9754   37.8516    8.6645 C.3     1  UNL1        0.0038
@<TRIPOS>UNITY_ATOM_ATTR
18 1
charge -1
@<TRIPOS>BOND
     1    21    22    1
     2    22    19    1
     3    19    20    2
     4    19     1    1
     5     1     2    2
     6     1     8    1
     7     2     3    1
     8     2     4    1
     9     4     5    1
    10     4     9    1
    11     5     6    1
    12     5     7    2
    13     7    23    1
    14     7     8    1
    15    23    24    2
    16    23    25    1
    17    25    26    1
    18    26    27    1
    19    27    28    1
    20    27    29    1
    21     8    10    1
    22    10    11   ar
    23    10    15   ar
    24    11    12   ar
    25    12    13   ar
    26    13    14   ar
    27    14    15   ar
    28    15    16    1
    29    16    17    2
    30    16    18    1
#	Name:			CHEMBL1727
#	Creating user name:	trannguyen
#	Creation time:		Tue Feb  8 18:26:14 2022


#	Modifying user name:	trannguyen
#	Modification time:	Tue Feb  8 18:26:14 2022

@<TRIPOS>MOLECULE
CHEMBL1727
 28 30 0 0 0
SMALL
GASTEIGER

@<TRIPOS>ATOM
      1 C           8.2226   33.6268   -3.6267 C.3     1  UNL1        0.0288
      2 C           7.9660   34.7977   -4.5552 C.2     1  UNL1       -0.0130
      3 CA          7.4757   34.6625   -5.8193 C.2     1  UNL1        0.1236
      4 N           7.2530   35.7804   -6.5743 N.am    1  UNL1       -0.2423
      5 C           6.6015   36.1416   -7.6931 C.2     1  UNL1        0.2506
      6 O           5.9272   35.4758   -8.4506 O.2     1  UNL1       -0.2726
      7 CA          6.9312   37.6484   -7.4429 C.3     1  UNL1        0.1784
      8 C           7.8384   37.0843   -6.3012 C.3     1  UNL1        0.1550
      9 S           7.4274   37.5461   -4.6044 S.3     1  UNL1       -0.1142
     10 C           8.2720   36.1220   -3.8798 C.3     1  UNL1        0.0826
     11 C           7.1858   33.2768   -6.3639 C.2     1  UNL1        0.3514
     12 O           8.0629   32.4748   -6.6571 O.2     1  UNL1       -0.2437
     13 OXT         5.8946   32.9395   -6.5340 O.3     1  UNL1       -0.4763
     14 HXT         5.2104   33.6234   -6.3674 H       1  UNL1        0.2954
     15 N           5.7603   38.4892   -7.0810 N.am    1  UNL1       -0.2950
     16 C           5.3657   39.5726   -7.8397 C.2     1  UNL1        0.2411
     17 O           5.9193   39.8676   -8.8973 O.2     1  UNL1       -0.2733
     18 H           5.2530   38.3731   -6.2045 H       1  UNL1        0.1499
     19 CA          4.1756   40.3766   -7.2421 C.3     1  UNL1        0.1511
     20 N           3.2578   40.7687   -8.3495 N.3     1  UNL1       -0.3116
     21 H1          2.4206   41.1635   -7.9167 H       1  UNL1        0.1195
     22 H2          2.9314   39.9075   -8.7943 H       1  UNL1        0.1195
     23 C           4.6274   41.5499   -6.3791 C.ar    1  UNL1        0.0005
     24 C           5.9901   41.8995   -6.3450 C.ar    1  UNL1       -0.0025
     25 C           6.4568   42.9170   -5.5065 C.ar    1  UNL1       -0.0003
     26 C           5.5729   43.5985   -4.6757 C.ar    1  UNL1       -0.0000
     27 C           4.2205   43.2732   -4.6945 C.ar    1  UNL1       -0.0003
     28 C           3.7515   42.2634   -5.5410 C.ar    1  UNL1       -0.0025
@<TRIPOS>BOND
     1     1     2    1
     2     2     3    2
     3     2    10    1
     4     3     4    1
     5     3    11    1
     6    11    12    2
     7    11    13    1
     8    13    14    1
     9     4     5   am
    10     4     8    1
    11     5     7    1
    12     5     6    2
    13     7     8    1
    14     7    15    1
    15    15    16   am
    16    15    18    1
    17    16    17    2
    18    19    20    1
    19    19    23    1
    20    19    16    1
    21    20    21    1
    22    20    22    1
    23    23    24   ar
    24    23    28   ar
    25    24    25   ar
    26    25    26   ar
    27    26    27   ar
    28    27    28   ar
    29     8     9    1
    30     9    10    1
#	Name:			CHEMBL1729
#	Creating user name:	trannguyen
#	Creation time:		Tue Feb  8 18:26:14 2022


#	Modifying user name:	trannguyen
#	Modification time:	Tue Feb  8 18:26:14 2022

@<TRIPOS>MOLECULE
CHEMBL1729
 35 37 0 0 0
SMALL
GASTEIGER

@<TRIPOS>ATOM
      1 C           7.5684   31.9334    9.0068 C.3     1  UNL1        0.1017
      2 C           8.5064   31.0371    8.1730 C.3     1  UNL1        0.0394
      3 C           8.3155   31.1590    6.6508 C.3     1  UNL1        0.0739
      4 N           8.3063   32.5519    6.1813 N.3     1  UNL1       -0.2704
      5 C           7.3040   33.3270    6.9340 C.3     1  UNL1        0.1037
      6 C           7.5631   33.3804    8.4499 C.3     1  UNL1        0.1490
      7 C           5.7281   30.6524   10.1715 C.2     1  UNL1        0.2488
      8 O           6.4106   30.3566   11.1754 O.2     1  UNL1       -0.2700
      9 N           6.2043   31.3790    9.1065 N.am    1  UNL1       -0.2999
     10 H           5.5503   31.5894    8.3397 H       1  UNL1        0.1498
     11 C           3.2079   31.0731    9.8470 C.ar    1  UNL1        0.1443
     12 C           1.9107   30.5472    9.7596 C.ar    1  UNL1        0.0520
     13 C           1.6626   29.1758    9.8879 C.ar    1  UNL1        0.0553
     14 N           0.3667   28.6978    9.6182 N.pl3   1  UNL1       -0.3563
     15 C           2.7603   28.3174   10.0662 C.ar    1  UNL1        0.0709
     16 CL          2.5234   26.6021   10.1112 Cl      1  UNL1       -0.0810
     17 C           4.0481   28.8232   10.2174 C.ar    1  UNL1        0.0202
     18 C           4.2967   30.1995   10.0941 C.ar    1  UNL1        0.0882
     19 H          -0.3795   29.3138    9.9263 H       1  UNL1        0.1424
     20 H           0.2280   27.7366    9.9264 H       1  UNL1        0.1424
     21 C           2.3398   33.2799    9.8467 C.3     1  UNL1        0.2525
     22 O           3.4699   32.4148    9.7671 O.3     1  UNL1       -0.4712
     23 O           8.8089   34.0417    8.7516 O.3     1  UNL1       -0.3505
     24 C           9.0706   34.1424   10.1510 C.3     1  UNL1        0.1741
     25 C           8.0621   32.6328    4.7268 C.3     1  UNL1        0.0760
     26 C           7.4431   33.9761    4.2917 C.3     1  UNL1        0.0646
     27 C           6.3605   33.8019    3.2365 C.3     1  UNL1        0.2068
     28 O           5.7168   32.5352    3.4390 O.3     1  UNL1       -0.4754
     29 C           4.3884   32.5146    3.7664 C.ar    1  UNL1        0.1387
     30 C           3.6398   31.3682    4.0410 C.ar    1  UNL1        0.0392
     31 C           2.2962   31.4665    4.4058 C.ar    1  UNL1        0.0327
     32 C           1.6970   32.7133    4.4969 C.ar    1  UNL1        0.1403
     33 F           0.4153   32.7995    4.8752 F       1  UNL1       -0.2042
     34 C           2.4120   33.8670    4.2042 C.ar    1  UNL1        0.0327
     35 C           3.7553   33.7655    3.8231 C.ar    1  UNL1        0.0392
@<TRIPOS>BOND
     1    21    22    1
     2    22    11    1
     3    11    12   ar
     4    11    18   ar
     5    12    13   ar
     6    13    14    1
     7    13    15   ar
     8    14    19    1
     9    14    20    1
    10    15    16    1
    11    15    17   ar
    12    17    18   ar
    13    18     7    1
    14     7     8    2
    15     7     9   am
    16     9     1    1
    17     9    10    1
    18     1     2    1
    19     1     6    1
    20     2     3    1
    21     3     4    1
    22     4    25    1
    23     4     5    1
    24    25    26    1
    25    26    27    1
    26    27    28    1
    27    28    29    1
    28    29    30   ar
    29    29    35   ar
    30    30    31   ar
    31    31    32   ar
    32    32    33    1
    33    32    34   ar
    34    34    35   ar
    35     5     6    1
    36     6    23    1
    37    23    24    1
#	Name:			CHEMBL1730
#	Creating user name:	trannguyen
#	Creation time:		Tue Feb  8 18:26:14 2022


#	Modifying user name:	trannguyen
#	Modification time:	Tue Feb  8 18:26:14 2022

@<TRIPOS>MOLECULE
CHEMBL1730
 34 36 0 0 0
SMALL
GASTEIGER

@<TRIPOS>ATOM
      1 CA          5.9640   32.2092    2.9526 C.3     1  UNL1        0.1786
      2 C           4.9356   33.0097    3.8051 C.2     1  UNL1        0.2506
      3 O           4.2038   33.9657    3.6290 O.2     1  UNL1       -0.2726
      4 N           5.2539   32.2527    4.8877 N.am    1  UNL1       -0.2423
      5 CA          5.0148   32.4180    6.2277 C.2     1  UNL1        0.1270
      6 C           6.0204   32.3150    7.1435 C.2     1  UNL1        0.0300
      7 C           7.4657   32.0857    6.7529 C.3     1  UNL1        0.0862
      8 S           7.8619   32.6390    5.0833 S.3     1  UNL1       -0.1141
      9 C           6.4802   31.7186    4.3385 C.3     1  UNL1        0.1550
     10 C           7.6374   32.3896    1.0873 C.2     1  UNL1        0.2687
     11 O           7.5511   31.1966    0.8194 O.2     1  UNL1       -0.2683
     12 N           6.9011   32.9617    2.1042 N.am    1  UNL1       -0.2914
     13 H           7.0703   33.9478    2.2802 H       1  UNL1        0.1503
     14 N           9.4707   34.1187    0.8477 N.2     1  UNL1       -0.0767
     15 C           8.5965   33.3166    0.2969 C.2     1  UNL1        0.1904
     16 C           8.5718   33.3265   -1.1758 C.ar    1  UNL1        0.1150
     17 C           7.4737   33.6480   -1.9543 C.ar    1  UNL1        0.0590
     18 S           7.8429   33.4941   -3.6173 S.2     1  UNL1       -0.0514
     19 C           9.4609   33.1048   -3.2111 C.ar    1  UNL1        0.1568
     20 N          10.3853   32.9268   -4.1689 N.pl3   1  UNL1       -0.3375
     21 N           9.7196   33.0447   -1.9296 N.ar    1  UNL1       -0.2227
     22 H          10.1544   33.2487   -5.1007 H       1  UNL1        0.1442
     23 H          11.3390   33.1284   -3.8888 H       1  UNL1        0.1442
     24 C           9.5250   35.4544    2.7101 C.3     1  UNL1        0.2885
     25 O           9.4510   34.1173    2.2420 O.2     1  UNL1       -0.3729
     26 C           3.5694   32.6028    6.6085 C.2     1  UNL1        0.3515
     27 O           2.7353   31.7324    6.7786 O.2     1  UNL1       -0.2437
     28 OXT         3.2235   33.9085    6.6317 O.3     1  UNL1       -0.4762
     29 HXT         2.2916   33.9380    6.9263 H       1  UNL1        0.2954
     30 C           5.7989   32.4536    8.6465 C.3     1  UNL1        0.2331
     31 O           5.8646   31.1955    9.3594 O.3     1  UNL1       -0.4438
     32 C           4.6799   30.6636    9.7771 C.2     1  UNL1        0.3179
     33 C           4.8029   29.1790    9.9707 C.3     1  UNL1        0.1212
     34 O           3.6282   31.2745    9.9011 O.2     1  UNL1       -0.2501
@<TRIPOS>BOND
     1    24    25    1
     2    25    14    1
     3    14    15    2
     4    15    10    1
     5    15    16    1
     6    10    11    2
     7    10    12   am
     8    12     1    1
     9    12    13    1
    10     1     2    1
    11     1     9    1
    12     2     4   am
    13     2     3    2
    14     4     5    1
    15     4     9    1
    16     5     6    2
    17     5    26    1
    18    26    27    2
    19    26    28    1
    20    28    29    1
    21     6     7    1
    22     6    30    1
    23    30    31    1
    24    31    32    1
    25    32    33    1
    26    32    34    2
    27     7     8    1
    28     8     9    1
    29    16    17   ar
    30    16    21   ar
    31    17    18   ar
    32    18    19   ar
    33    19    20    1
    34    19    21   ar
    35    20    22    1
    36    20    23    1
#	Name:			CHEMBL1732
#	Creating user name:	trannguyen
#	Creation time:		Tue Feb  8 18:26:14 2022


#	Modifying user name:	trannguyen
#	Modification time:	Tue Feb  8 18:26:14 2022

@<TRIPOS>MOLECULE
CHEMBL1732
 46 53 0 0 0
SMALL
GASTEIGER

@<TRIPOS>ATOM
      1 C           8.2514   35.2136    8.3270 C.3     1  UNL1        0.2256
      2 C           7.6813   36.2691    9.2742 C.3     1  UNL1        0.0607
      3 O           9.4717   34.6044    8.7968 O.3     1  UNL1       -0.2976
      4 C           9.0978   33.5569    9.6857 C.3     1  UNL1        0.2754
      5 O           8.8185   34.1477   10.9380 O.3     1  UNL1       -0.3478
      6 C          10.1615   32.4376    9.8554 C.3     1  UNL1        0.1465
      7 C          11.6349   32.8362    9.8469 C.3     1  UNL1        0.0285
      8 C          12.3586   31.7180    9.0803 C.3     1  UNL1        0.0234
      9 C          11.3110   30.6548    8.7832 C.3     1  UNL1        0.0937
     10 N          10.0618   31.3666    8.8815 N.am    1  UNL1       -0.2734
     11 C           8.8413   30.7902    8.5839 C.2     1  UNL1        0.2444
     12 O           8.7460   29.6661    8.0935 O.2     1  UNL1       -0.2731
     13 C           7.5955   31.6129    9.0067 C.3     1  UNL1        0.1604
     14 N           7.8580   33.0552    9.1678 N.am    1  UNL1       -0.2268
     15 C           7.3439   33.9821    8.2852 C.2     1  UNL1        0.2719
     16 O           6.3860   33.8165    7.5322 O.2     1  UNL1       -0.2704
     17 H           9.6774   34.3904   11.3187 H       1  UNL1        0.2145
     18 C           9.3337   35.1019    6.0746 C.2     1  UNL1        0.2252
     19 O          10.0292   34.1301    6.3432 O.2     1  UNL1       -0.2750
     20 N           8.4603   35.6758    6.9678 N.am    1  UNL1       -0.2790
     21 H           7.8892   36.4567    6.6713 H       1  UNL1        0.1519
     22 C          10.8403   36.7077    2.1613 C.3     1  UNL1        0.0896
     23 N          10.0879   35.4685    2.3448 N.3     1  UNL1       -0.2717
     24 C          10.1575   34.9622    3.7191 C.3     1  UNL1        0.0812
     25 C           9.3794   35.8173    4.7253 C.3     1  UNL1        0.0928
     26 C           7.9821   36.2098    4.2126 C.3     1  UNL1        0.0162
     27 C           7.5425   35.4683    2.9341 C.3     1  UNL1        0.0379
     28 C           7.0543   34.0524    3.1758 C.ar    1  UNL1       -0.0200
     29 C           6.2214   33.6352    4.2231 C.ar    1  UNL1       -0.0041
     30 C           5.8418   32.2914    4.3566 C.ar    1  UNL1        0.0012
     31 C           6.2651   31.3089    3.4489 C.ar    1  UNL1        0.0169
     32 C           7.0475   31.7454    2.3800 C.ar    1  UNL1        0.0560
     33 N           7.6158   31.0884    1.3108 N.ar    1  UNL1       -0.3523
     34 H           7.5520   30.0934    1.1508 H       1  UNL1        0.1660
     35 C           8.2559   31.9863    0.4811 C.ar    1  UNL1        0.0681
     36 C           8.1233   33.2358    1.0414 C.ar    1  UNL1       -0.0028
     37 C           7.4035   33.0732    2.2405 C.ar    1  UNL1        0.0092
     38 C           8.5359   34.6007    0.6138 C.3     1  UNL1        0.0442
     39 C           8.6928   35.5796    1.8320 C.3     1  UNL1        0.0659
     40 C           6.8583   30.9773   10.2031 C.3     1  UNL1        0.0557
     41 C           5.4684   30.4516    9.9295 C.ar    1  UNL1       -0.0200
     42 C           4.5335   31.2352    9.2406 C.ar    1  UNL1       -0.0042
     43 C           3.2173   30.7983    9.0827 C.ar    1  UNL1       -0.0003
     44 C           2.8311   29.5563    9.5807 C.ar    1  UNL1       -0.0000
     45 C           3.7630   28.7478   10.2290 C.ar    1  UNL1       -0.0003
     46 C           5.0754   29.1918   10.4035 C.ar    1  UNL1       -0.0042
@<TRIPOS>BOND
     1    22    23    1
     2    23    24    1
     3    23    39    1
     4    24    25    1
     5    25    26    1
     6    25    18    1
     7    18    19    2
     8    18    20   am
     9    20    21    1
    10     1     3    1
    11     1    15    1
    12     1    20    1
    13     1     2    1
    14     3     4    1
    15     4     6    1
    16     4    14    1
    17     4     5    1
    18     5    17    1
    19     6     7    1
    20     6    10    1
    21     7     8    1
    22     8     9    1
    23     9    10    1
    24    10    11   am
    25    11    13    1
    26    11    12    2
    27    13    14    1
    28    13    40    1
    29    40    41    1
    30    41    42   ar
    31    41    46   ar
    32    42    43   ar
    33    43    44   ar
    34    44    45   ar
    35    45    46   ar
    36    14    15   am
    37    15    16    2
    38    26    27    1
    39    27    28    1
    40    27    39    1
    41    28    29   ar
    42    28    37   ar
    43    29    30   ar
    44    30    31   ar
    45    31    32   ar
    46    32    33   ar
    47    32    37   ar
    48    33    35   ar
    49    33    34    1
    50    35    36   ar
    51    36    37   ar
    52    36    38    1
    53    38    39    1
#	Name:			CHEMBL1741
#	Creating user name:	trannguyen
#	Creation time:		Tue Feb  8 18:26:14 2022


#	Modifying user name:	trannguyen
#	Modification time:	Tue Feb  8 18:26:14 2022

@<TRIPOS>MOLECULE
CHEMBL1741
 56 58 0 0 0
SMALL
GASTEIGER

@<TRIPOS>ATOM
      1 C          13.6897   34.7531   -5.1936 C.3     1  UNL1        0.1953
      2 O          12.2701   34.9566   -5.3380 O.3     1  UNL1       -0.4497
      3 C          11.2823   34.1056   -5.3467 C.2     1  UNL1        0.3188
      4 O          11.4377   32.8887   -5.1176 O.2     1  UNL1       -0.2500
      5 C           9.8710   34.6540   -5.7450 C.3     1  UNL1        0.1263
      6 C          10.0723   35.6485   -6.8812 C.3     1  UNL1        0.0142
      7 C           8.8388   34.9220   -4.6163 C.3     1  UNL1        0.1306
      8 C           7.6831   35.9474   -4.9773 C.3     1  UNL1        0.0575
      9 C           6.9099   35.3517   -6.2238 C.3     1  UNL1        0.0051
     10 C           7.7889   37.5147   -5.2141 C.3     1  UNL1        0.1447
     11 C           8.9227   38.5784   -4.6427 C.3     1  UNL1        0.1183
     12 C           8.2624   39.7103   -3.8425 C.3     1  UNL1        0.0321
     13 C          10.0433   37.8847   -3.8159 C.3     1  UNL1        0.0370
     14 C          11.0475   38.7611   -3.0232 C.3     1  UNL1        0.0601
     15 C          10.6808   39.0464   -1.5711 C.3     1  UNL1        0.0078
     16 C          12.4362   38.1430   -3.1588 C.2     1  UNL1        0.1523
     17 O          13.1248   38.4898   -4.1186 O.2     1  UNL1       -0.2960
     18 C          12.9051   37.0949   -2.1513 C.3     1  UNL1        0.0869
     19 C          13.8636   37.7243   -1.1391 C.3     1  UNL1        0.0104
     20 C          13.3930   35.7371   -2.7039 C.3     1  UNL1        0.1451
     21 O          12.2372   34.8961   -2.7722 O.3     1  UNL1       -0.3815
     22 C          14.3142   35.5780   -3.9784 C.3     1  UNL1        0.1497
     23 C          15.6376   35.0009   -3.4605 C.3     1  UNL1        0.0356
     24 O          14.7965   36.8256   -4.5056 O.3     1  UNL1       -0.3808
     25 H          11.6455   35.2998   -3.4163 H       1  UNL1        0.2105
     26 H          14.0494   37.4046   -4.7610 H       1  UNL1        0.2105
     27 C          14.7097   32.8300   -6.7017 C.3     1  UNL1        0.0039
     28 C          14.0651   33.2647   -5.3852 C.3     1  UNL1        0.0462
     29 O           9.5004   39.1520   -5.8728 O.3     1  UNL1       -0.3535
     30 C           9.8139   40.5383   -5.9844 C.3     1  UNL1        0.1740
     31 O           9.2040   34.9943   -3.1981 O.3     1  UNL1       -0.3323
     32 C           8.0848   35.0084   -2.2427 C.3     1  UNL1        0.2375
     33 C           7.5349   33.5741   -1.8583 C.3     1  UNL1        0.0910
     34 C           7.6059   33.2917   -0.3174 C.3     1  UNL1        0.1246
     35 C           6.4353   34.0271    0.3830 C.3     1  UNL1        0.0324
     36 C           9.0316   33.7375    0.0878 C.3     1  UNL1        0.1623
     37 O          10.0232   33.0668   -0.7245 O.3     1  UNL1       -0.3796
     38 C           9.1848   35.2491   -0.0642 C.3     1  UNL1        0.1468
     39 C           8.8294   35.9434    1.2591 C.3     1  UNL1        0.0348
     40 O           8.3304   35.7968   -1.0746 O.3     1  UNL1       -0.3304
     41 H          10.0421   33.4795   -1.6069 H       1  UNL1        0.2105
     42 O           7.4458   31.8749   -0.0268 O.3     1  UNL1       -0.3532
     43 C           7.7411   31.4930    1.3304 C.3     1  UNL1        0.1740
     44 O           6.4408   38.0753   -5.4171 O.3     1  UNL1       -0.3287
     45 C           5.9425   38.6083   -6.6735 C.3     1  UNL1        0.2643
     46 O           6.9603   38.9413   -7.6294 O.3     1  UNL1       -0.3311
     47 C           6.6399   40.0298   -8.5049 C.3     1  UNL1        0.1194
     48 C           7.6749   40.1191   -9.6298 C.3     1  UNL1        0.0322
     49 C           6.6779   41.2734   -7.6395 C.3     1  UNL1        0.0482
     50 C           5.4700   41.2641   -6.6904 C.3     1  UNL1        0.0921
     51 C           4.9854   39.8193   -6.2947 C.3     1  UNL1        0.1815
     52 O           3.7371   39.6072   -7.0189 O.3     1  UNL1       -0.3783
     53 H           3.0924   40.2554   -6.6770 H       1  UNL1        0.2106
     54 N           5.6359   42.2967   -5.6383 N.3     1  UNL1       -0.2692
     55 C           5.2613   41.8758   -4.2961 C.3     1  UNL1        0.0897
     56 C           6.9439   42.9419   -5.6428 C.3     1  UNL1        0.0897
@<TRIPOS>BOND
     1    27    28    1
     2    28     1    1
     3     1     2    1
     4     1    22    1
     5     2     3    1
     6     3     4    2
     7     3     5    1
     8     5     6    1
     9     5     7    1
    10     7     8    1
    11     7    31    1
    12    31    32    1
    13    32    33    1
    14    32    40    1
    15    33    34    1
    16    34    36    1
    17    34    42    1
    18    34    35    1
    19    42    43    1
    20    36    38    1
    21    36    37    1
    22    37    41    1
    23    38    39    1
    24    38    40    1
    25     8     9    1
    26     8    10    1
    27    10    11    1
    28    10    44    1
    29    45    46    1
    30    45    51    1
    31    45    44    1
    32    46    47    1
    33    47    48    1
    34    47    49    1
    35    49    50    1
    36    50    54    1
    37    50    51    1
    38    54    55    1
    39    54    56    1
    40    51    52    1
    41    52    53    1
    42    11    12    1
    43    11    29    1
    44    11    13    1
    45    29    30    1
    46    13    14    1
    47    14    16    1
    48    14    15    1
    49    16    17    2
    50    16    18    1
    51    18    19    1
    52    18    20    1
    53    20    22    1
    54    20    21    1
    55    21    25    1
    56    22    23    1
    57    22    24    1
    58    24    26    1
#	Name:			CHEMBL1747
#	Creating user name:	trannguyen
#	Creation time:		Tue Feb  8 18:26:14 2022


#	Modifying user name:	trannguyen
#	Modification time:	Tue Feb  8 18:26:14 2022

@<TRIPOS>MOLECULE
CHEMBL1747
 47 49 0 0 0
SMALL
GASTEIGER

@<TRIPOS>ATOM
      1 C           7.1642   33.3972    8.2384 C.3     1  UNL1        0.1610
      2 C           8.0686   32.1568    8.4176 C.3     1  UNL1        0.0824
      3 N           9.4836   32.5511    8.3111 N.3     1  UNL1       -0.3202
      4 C           7.8523   31.4705    9.7608 C.3     1  UNL1        0.0361
      5 C           6.3986   31.0178    9.8932 C.3     1  UNL1        0.0824
      6 N           6.2449   30.2229   11.1249 N.3     1  UNL1       -0.3202
      7 C           5.4316   32.2339    9.8699 C.3     1  UNL1        0.1610
      8 C           5.6905   33.1582    8.6491 C.3     1  UNL1        0.1673
      9 O           5.0900   34.4608    8.9343 O.3     1  UNL1       -0.3795
     10 H           9.6068   33.0869    7.4472 H       1  UNL1        0.1189
     11 H          10.0750   31.7262    8.2230 H       1  UNL1        0.1189
     12 H           6.4021   30.8091   11.9439 H       1  UNL1        0.1189
     13 H           6.9512   29.4880   11.1579 H       1  UNL1        0.1189
     14 H           5.8220   35.0565    9.2039 H       1  UNL1        0.2105
     15 O           7.2575   33.7618    6.8363 O.3     1  UNL1       -0.3281
     16 C           4.7962   33.7148    4.1168 C.3     1  UNL1        0.1599
     17 O           5.6894   34.1767    5.1474 O.3     1  UNL1       -0.3281
     18 C           6.2695   33.1712    5.9716 C.3     1  UNL1        0.2499
     19 C           6.9600   32.0356    5.1617 C.3     1  UNL1        0.1105
     20 N           8.1868   32.4903    4.4671 N.3     1  UNL1       -0.3181
     21 C           5.9675   31.4396    4.1638 C.3     1  UNL1        0.0524
     22 C           5.3337   32.5227    3.2944 C.3     1  UNL1        0.1404
     23 O           6.3186   33.0222    2.3724 O.3     1  UNL1       -0.3819
     24 H           8.7042   33.0576    5.1438 H       1  UNL1        0.1190
     25 H           7.8924   33.1692    3.7553 H       1  UNL1        0.1190
     26 H           6.7573   32.2525    1.9673 H       1  UNL1        0.2104
     27 N           2.9205   34.4025    5.7153 N.3     1  UNL1       -0.3191
     28 C           3.3523   33.5128    4.6364 C.3     1  UNL1        0.0977
     29 H           2.0576   34.0366    6.1196 H       1  UNL1        0.1189
     30 H           2.6473   35.3039    5.3097 H       1  UNL1        0.1189
     31 O           4.0854   31.6894    9.8711 O.3     1  UNL1       -0.3272
     32 C           3.6719   30.8704    8.7783 C.3     1  UNL1        0.2646
     33 O           3.7823   29.4804    9.1502 O.3     1  UNL1       -0.3260
     34 C           2.8599   29.0789   10.1836 C.3     1  UNL1        0.1750
     35 C           1.3990   29.3806    9.8074 C.3     1  UNL1        0.1566
     36 O           0.5044   29.0749   10.8805 O.3     1  UNL1       -0.3804
     37 C           1.2272   30.8505    9.3733 C.3     1  UNL1        0.1128
     38 N          -0.1766   31.1167    8.9849 N.3     1  UNL1       -0.3181
     39 C           2.2367   31.1323    8.2471 C.3     1  UNL1        0.1835
     40 O           2.0439   32.4345    7.6957 O.3     1  UNL1       -0.3783
     41 H           0.6709   29.7179   11.5969 H       1  UNL1        0.2105
     42 H          -0.7843   30.5300    9.5637 H       1  UNL1        0.1190
     43 H          -0.3290   30.8312    8.0192 H       1  UNL1        0.1190
     44 H           2.8655   32.6433    7.2101 H       1  UNL1        0.2106
     45 C           3.0300   27.5625   10.3844 C.3     1  UNL1        0.1693
     46 O           2.3225   27.1284   11.5451 O.3     1  UNL1       -0.3794
     47 H           2.5798   27.7468   12.2558 H       1  UNL1        0.2105
@<TRIPOS>BOND
     1    27    28    1
     2    27    29    1
     3    27    30    1
     4    28    16    1
     5    16    17    1
     6    16    22    1
     7    17    18    1
     8    18    15    1
     9    18    19    1
    10     1     2    1
    11     1     8    1
    12     1    15    1
    13     2     3    1
    14     2     4    1
    15     3    10    1
    16     3    11    1
    17     4     5    1
    18     5     7    1
    19     5     6    1
    20     6    12    1
    21     6    13    1
    22     7    31    1
    23     7     8    1
    24    31    32    1
    25    32    33    1
    26    32    39    1
    27    33    34    1
    28    34    45    1
    29    34    35    1
    30    45    46    1
    31    46    47    1
    32    35    37    1
    33    35    36    1
    34    36    41    1
    35    37    38    1
    36    37    39    1
    37    38    42    1
    38    38    43    1
    39    39    40    1
    40    40    44    1
    41     8     9    1
    42     9    14    1
    43    19    20    1
    44    19    21    1
    45    20    24    1
    46    20    25    1
    47    21    22    1
    48    22    23    1
    49    23    26    1
#	Name:			CHEMBL174
#	Creating user name:	trannguyen
#	Creation time:		Tue Feb  8 18:26:14 2022


#	Modifying user name:	trannguyen
#	Modification time:	Tue Feb  8 18:26:14 2022

@<TRIPOS>MOLECULE
CHEMBL174
 28 30 0 0 0
SMALL
GASTEIGER

@<TRIPOS>ATOM
      1 C           8.8334   32.2008    7.5112 C.3     1  UNL1        0.0131
      2 C           9.1499   32.1349    9.0169 C.3     1  UNL1        0.0679
      3 C          10.3377   31.1843    9.2092 C.3     1  UNL1        0.0131
      4 S           7.6690   31.3861    9.8600 S.3     1  UNL1       -0.1185
      5 C           7.1196   32.9497   10.6335 C.3     1  UNL1        0.1509
      6 CA          5.9478   33.7153    9.9715 C.3     1  UNL1        0.1777
      7 C           7.0824   34.4957    9.2486 C.2     1  UNL1        0.2471
      8 O           7.2375   35.1590    8.2540 O.2     1  UNL1       -0.2730
      9 N           8.0244   33.9937   10.1188 N.am    1  UNL1       -0.2597
     10 CA          9.3311   33.5574    9.6068 C.3     1  UNL1        0.1843
     11 N           5.0167   32.9249    9.1441 N.am    1  UNL1       -0.2950
     12 C           3.6804   32.8087    9.4678 C.2     1  UNL1        0.2411
     13 O           3.1939   33.3495   10.4592 O.2     1  UNL1       -0.2733
     14 H           5.3450   32.3716    8.3578 H       1  UNL1        0.1499
     15 CA          2.8688   31.8626    8.5539 C.3     1  UNL1        0.1511
     16 N           1.5881   32.5253    8.2073 N.3     1  UNL1       -0.3116
     17 H1          1.1272   31.9450    7.5050 H       1  UNL1        0.1195
     18 H2          1.8097   33.4017    7.7327 H       1  UNL1        0.1195
     19 C           2.6553   30.4953    9.1800 C.ar    1  UNL1        0.0005
     20 C           1.3562   29.9714    9.2815 C.ar    1  UNL1       -0.0025
     21 C           1.1373   28.7136    9.8494 C.ar    1  UNL1       -0.0003
     22 C           2.2122   27.9581   10.3128 C.ar    1  UNL1       -0.0000
     23 C           3.5076   28.4554   10.2057 C.ar    1  UNL1       -0.0003
     24 C           3.7275   29.7132    9.6436 C.ar    1  UNL1       -0.0025
     25 C          10.3577   33.6907   10.7450 C.2     1  UNL1        0.3329
     26 O          10.2233   33.2217   11.8652 O.2     1  UNL1       -0.2484
     27 OXT        11.4936   34.3411   10.3828 O.3     1  UNL1       -0.4790
     28 HXT        11.4757   34.5341    9.4227 H       1  UNL1        0.2951
@<TRIPOS>BOND
     1     1     2    1
     2     2     3    1
     3     2     4    1
     4     2    10    1
     5     4     5    1
     6     5     6    1
     7     5     9    1
     8     6     7    1
     9     6    11    1
    10    11    12   am
    11    11    14    1
    12    12    13    2
    13    15    16    1
    14    15    19    1
    15    15    12    1
    16    16    17    1
    17    16    18    1
    18    19    20   ar
    19    19    24   ar
    20    20    21   ar
    21    21    22   ar
    22    22    23   ar
    23    23    24   ar
    24     7     8    2
    25     7     9   am
    26     9    10    1
    27    10    25    1
    28    25    26    2
    29    25    27    1
    30    27    28    1
#	Name:			CHEMBL1751
#	Creating user name:	trannguyen
#	Creation time:		Tue Feb  8 18:26:14 2022


#	Modifying user name:	trannguyen
#	Modification time:	Tue Feb  8 18:26:14 2022

@<TRIPOS>MOLECULE
CHEMBL1751
 61 68 0 0 0
SMALL
GASTEIGER

@<TRIPOS>ATOM
      1 C           6.9879   32.2032    3.3174 C.3     1  UNL1        0.1715
      2 C           7.5263   31.5641    2.0323 C.3     1  UNL1        0.1450
      3 O           6.8842   30.2976    1.8504 O.3     1  UNL1       -0.3817
      4 C           7.2598   32.4312    0.8185 C.3     1  UNL1        0.0931
      5 C           7.7043   33.8733    1.0358 C.3     1  UNL1        0.2376
      6 O           7.2528   34.4233    2.2650 O.3     1  UNL1       -0.3304
      7 C           7.4930   33.6506    3.4462 C.3     1  UNL1        0.1473
      8 C           8.9401   33.7058    3.9346 C.3     1  UNL1        0.0348
      9 H           5.9779   30.4481    2.1914 H       1  UNL1        0.2104
     10 O           5.5325   32.0874    3.3289 O.3     1  UNL1       -0.3279
     11 C           2.3787   32.2174    5.6042 C.3     1  UNL1        0.1715
     12 C           3.4779   33.3008    5.7142 C.3     1  UNL1        0.1450
     13 O           3.3962   34.0296    6.9458 O.3     1  UNL1       -0.3817
     14 C           4.8722   32.7040    5.6206 C.3     1  UNL1        0.0931
     15 C           5.0192   31.5934    4.5803 C.3     1  UNL1        0.2377
     16 O           3.8731   30.7665    4.4009 O.3     1  UNL1       -0.3304
     17 C           2.6193   31.4426    4.3012 C.3     1  UNL1        0.1473
     18 C           2.4795   32.2969    3.0390 C.3     1  UNL1        0.0348
     19 H           2.4624   34.2432    7.1037 H       1  UNL1        0.2104
     20 O           2.4578   31.3752    6.7753 O.3     1  UNL1       -0.3279
     21 C           4.5956   31.4712    8.9963 C.3     1  UNL1        0.0348
     22 C           3.2490   31.6214    9.6947 C.3     1  UNL1        0.1469
     23 O           2.3516   32.4235    8.9105 O.3     1  UNL1       -0.3304
     24 C           1.6327   31.7625    7.8748 C.3     1  UNL1        0.2377
     25 C           0.8947   30.5370    8.3976 C.3     1  UNL1        0.0931
     26 C           1.8932   29.5723    9.0096 C.3     1  UNL1        0.1446
     27 O           1.1936   28.4574    9.5851 O.3     1  UNL1       -0.3817
     28 C           2.6775   30.2665   10.1278 C.3     1  UNL1        0.1644
     29 O           1.7946   30.4781   11.2449 O.3     1  UNL1       -0.3795
     30 H           0.7482   27.9906    8.8552 H       1  UNL1        0.2104
     31 H           1.2825   29.6451   11.3026 H       1  UNL1        0.2105
     32 O           9.1138   34.0362    0.8677 O.3     1  UNL1       -0.3330
     33 C           9.5155   35.4229    0.8425 C.3     1  UNL1        0.1178
     34 C          10.9561   35.5075    0.3266 C.3     1  UNL1        0.0296
     35 C          10.9736   35.4782   -1.1925 C.3     1  UNL1        0.0025
     36 C          10.1920   36.6707   -1.8398 C.3     1  UNL1        0.0003
     37 C          11.2443   37.7379   -2.2076 C.3     1  UNL1        0.0000
     38 C           9.3135   36.0989   -3.0138 C.3     1  UNL1        0.0047
     39 C           9.9605   35.1718   -4.0448 C.3     1  UNL1        0.0294
     40 C          10.6800   35.8797   -5.1683 C.3     1  UNL1        0.1128
     41 O          11.0692   34.9152   -6.1526 O.3     1  UNL1       -0.3844
     42 C           9.9228   37.0471   -5.8454 C.3     1  UNL1        0.0508
     43 C          11.0716   37.8969   -6.4917 C.3     1  UNL1        0.0051
     44 C           8.8906   36.6552   -6.9813 C.3     1  UNL1        0.0265
     45 C           8.1828   38.0075   -7.1988 C.3     1  UNL1        0.0067
     46 C           8.0017   38.6073   -5.7996 C.3     1  UNL1        0.0273
     47 C           9.0524   37.9302   -4.8706 C.3     1  UNL1        0.0906
     48 O           9.8101   38.9781   -4.2827 O.3     1  UNL1       -0.3867
     49 C           8.3855   37.0995   -3.7226 C.3     1  UNL1        0.0248
     50 C           7.5222   37.8510   -2.6981 C.3     1  UNL1        0.0023
     51 C           8.2296   38.3342   -1.4396 C.3     1  UNL1        0.0002
     52 C           9.2340   37.3520   -0.8020 C.3     1  UNL1        0.0024
     53 C           8.5279   36.2910    0.0415 C.3     1  UNL1        0.0296
     54 H          11.5444   34.2037   -5.6841 H       1  UNL1        0.2103
     55 H          10.0400   39.6382   -4.9578 H       1  UNL1        0.2102
     56 C           7.8708   35.5549   -6.7271 C.2     1  UNL1        0.0053
     57 C           7.9329   34.2587   -7.0493 C.2     1  UNL1        0.0769
     58 C           6.6706   33.6437   -6.6800 C.2     1  UNL1        0.3412
     59 O           6.3335   32.5073   -7.0037 O.2     1  UNL1       -0.2449
     60 O           5.9403   34.5307   -5.9696 O.3     1  UNL1       -0.4408
     61 C           6.6299   35.7852   -5.9395 C.3     1  UNL1        0.2314
@<TRIPOS>BOND
     1    21    22    1
     2    22    23    1
     3    22    28    1
     4    23    24    1
     5    24    25    1
     6    24    20    1
     7    20    11    1
     8    11    12    1
     9    11    17    1
    10    12    13    1
    11    12    14    1
    12    13    19    1
    13    14    15    1
    14    15    10    1
    15    15    16    1
    16    10     1    1
    17     1     2    1
    18     1     7    1
    19     2     3    1
    20     2     4    1
    21     3     9    1
    22     4     5    1
    23     5    32    1
    24     5     6    1
    25    33    34    1
    26    33    53    1
    27    33    32    1
    28    34    35    1
    29    35    36    1
    30    36    37    1
    31    36    38    1
    32    36    52    1
    33    38    39    1
    34    38    49    1
    35    39    40    1
    36    40    42    1
    37    40    41    1
    38    41    54    1
    39    42    43    1
    40    42    44    1
    41    42    47    1
    42    44    56    1
    43    44    45    1
    44    56    57    2
    45    56    61    1
    46    57    58    1
    47    58    59    2
    48    58    60    1
    49    60    61    1
    50    45    46    1
    51    46    47    1
    52    47    48    1
    53    47    49    1
    54    48    55    1
    55    49    50    1
    56    50    51    1
    57    51    52    1
    58    52    53    1
    59     6     7    1
    60     7     8    1
    61    16    17    1
    62    17    18    1
    63    25    26    1
    64    26    27    1
    65    26    28    1
    66    27    30    1
    67    28    29    1
    68    29    31    1
#	Name:			CHEMBL1752
#	Creating user name:	trannguyen
#	Creation time:		Tue Feb  8 18:26:14 2022


#	Modifying user name:	trannguyen
#	Modification time:	Tue Feb  8 18:26:14 2022

@<TRIPOS>MOLECULE
CHEMBL1752
 20 21 0 0 0
SMALL
GASTEIGER

@<TRIPOS>ATOM
      1 C           2.5042   32.8120    5.0391 C.3     1  UNL1        0.1383
      2 N           3.0611   32.3249    6.2858 N.ar    1  UNL1       -0.2454
      3 C           2.2883   31.4506    7.0655 C.ar    1  UNL1        0.2832
      4 O           1.1601   31.0725    6.7768 O.2     1  UNL1       -0.2652
      5 C           2.9549   31.0404    8.2579 C.ar    1  UNL1        0.1528
      6 C           4.1983   31.4821    8.6020 C.ar    1  UNL1        0.1696
      7 N           4.6109   30.9662    9.7912 N.ar    1  UNL1       -0.2063
      8 C           3.6056   30.2175   10.1927 C.ar    1  UNL1        0.1802
      9 N           2.5748   30.2193    9.2865 N.ar    1  UNL1       -0.3015
     10 N           4.9030   32.3591    7.8138 N.ar    1  UNL1       -0.2628
     11 C           6.2161   32.8393    8.1951 C.3     1  UNL1        0.1366
     12 C           4.3409   32.8086    6.6212 C.ar    1  UNL1        0.3350
     13 O           4.9392   33.6028    5.8856 O.2     1  UNL1       -0.2461
     14 C           1.3437   29.4576    9.4180 C.3     1  UNL1        0.1394
     15 C           1.3318   28.5442   10.6520 C.3     1  UNL1        0.1622
     16 O           0.0203   28.0320   10.9328 O.3     1  UNL1       -0.3799
     17 H          -0.3799   27.7085   10.0997 H       1  UNL1        0.2105
     18 C           2.2665   27.3405   10.4730 C.3     1  UNL1        0.1683
     19 O           2.2400   26.5201   11.6403 O.3     1  UNL1       -0.3794
     20 H           1.2962   26.3817   11.8559 H       1  UNL1        0.2105
@<TRIPOS>BOND
     1     1     2    1
     2     2     3   ar
     3     2    12   ar
     4     3     4    2
     5     3     5   ar
     6     5     6   ar
     7     5     9   ar
     8     6     7   ar
     9     6    10   ar
    10     7     8   ar
    11     8     9   ar
    12     9    14    1
    13    14    15    1
    14    15    16    1
    15    15    18    1
    16    16    17    1
    17    18    19    1
    18    19    20    1
    19    10    11    1
    20    10    12   ar
    21    12    13    2
#	Name:			CHEMBL1753
#	Creating user name:	trannguyen
#	Creation time:		Tue Feb  8 18:26:14 2022


#	Modifying user name:	trannguyen
#	Modification time:	Tue Feb  8 18:26:14 2022

@<TRIPOS>MOLECULE
CHEMBL1753
 31 32 0 0 0
SMALL
GASTEIGER

@<TRIPOS>ATOM
      1 C           5.0425   32.2415    7.7932 C.3     1  UNL1        0.1162
      2 C           3.4942   32.0017    7.9763 C.3     1  UNL1        0.1645
      3 O           3.1236   30.8002    8.6735 O.3     1  UNL1       -0.3410
      4 C           2.5674   30.8684    9.9845 C.3     1  UNL1        0.1918
      5 C           1.6673   32.0868   10.3020 C.3     1  UNL1        0.1772
      6 O           0.3651   31.9736    9.7081 O.3     1  UNL1       -0.3787
      7 C           2.3024   33.3787    9.7992 C.3     1  UNL1        0.1697
      8 O           3.4281   33.7822   10.5802 O.3     1  UNL1       -0.3794
      9 C           2.6336   33.2352    8.3102 C.3     1  UNL1        0.1684
     10 O           3.2008   34.4340    7.7849 O.3     1  UNL1       -0.3794
     11 H           0.0512   31.0713    9.9220 H       1  UNL1        0.2106
     12 H           3.9101   33.0100   10.9194 H       1  UNL1        0.2105
     13 H           2.5179   35.1262    7.8490 H       1  UNL1        0.2105
     14 S           1.5909   29.3381   10.3141 S.3     1  UNL1       -0.1086
     15 C           2.9497   28.2109   10.7022 C.3     1  UNL1        0.0716
     16 C           6.2488   33.0384    5.7453 C.2     1  UNL1        0.2370
     17 O           6.7449   34.0103    6.3282 O.2     1  UNL1       -0.2737
     18 N           5.4141   32.1376    6.3705 N.am    1  UNL1       -0.3013
     19 H           5.0577   31.3608    5.8204 H       1  UNL1        0.1495
     20 C           7.9948   33.1798    2.3889 C.3     1  UNL1        0.0178
     21 C           8.0054   32.9508    3.9042 C.3     1  UNL1        0.0267
     22 C           6.5385   32.7594    4.2631 C.3     1  UNL1        0.1348
     23 N           5.8745   33.7551    3.3908 N.3     1  UNL1       -0.2653
     24 C           4.4482   33.4685    3.2306 C.3     1  UNL1        0.0900
     25 C           6.5832   33.7174    2.1025 C.3     1  UNL1        0.0725
     26 C           8.3361   31.8800    1.6312 C.3     1  UNL1        0.0014
     27 C           8.9368   32.5670   -0.7283 C.3     1  UNL1        0.0000
     28 C           7.9047   31.8822    0.1601 C.3     1  UNL1        0.0000
     29 C           6.0338   31.4544    8.6841 C.3     1  UNL1        0.1003
     30 C           6.4955   32.2420    9.9128 C.3     1  UNL1        0.0193
     31 CL          7.5191   30.9587    7.8195 Cl      1  UNL1       -0.1132
@<TRIPOS>BOND
     1    27    28    1
     2    28    26    1
     3    20    21    1
     4    20    25    1
     5    20    26    1
     6    21    22    1
     7    22    23    1
     8    22    16    1
     9    16    17    2
    10    16    18   am
    11    18    19    1
    12     1     2    1
    13     1    18    1
    14    29    30    1
    15    29    31    1
    16    29     1    1
    17     2     3    1
    18     2     9    1
    19     3     4    1
    20     4    14    1
    21     4     5    1
    22    14    15    1
    23     5     6    1
    24     5     7    1
    25     6    11    1
    26     7     9    1
    27     7     8    1
    28     8    12    1
    29     9    10    1
    30    10    13    1
    31    23    24    1
    32    23    25    1
#	Name:			CHEMBL1754
#	Creating user name:	trannguyen
#	Creation time:		Tue Feb  8 18:26:14 2022


#	Modifying user name:	trannguyen
#	Modification time:	Tue Feb  8 18:26:14 2022

@<TRIPOS>MOLECULE
CHEMBL1754
 28 31 0 0 0
SMALL
GASTEIGER

@<TRIPOS>ATOM
      1 N           5.2483   33.7553    9.3949 N.am    1  UNL1       -0.2790
      2 C           6.1625   32.7119    9.0342 C.3     1  UNL1        0.0945
      3 C           5.6016   32.1787    7.7215 C.3     1  UNL1        0.0370
      4 C           4.0174   32.2908    7.8994 C.3     1  UNL1        0.1081
      5 C           3.9782   33.5336    8.8708 C.2     1  UNL1        0.2324
      6 O           2.9839   34.1945    9.2106 O.2     1  UNL1       -0.2742
      7 C           3.3810   31.0592    8.6455 C.ar    1  UNL1       -0.0108
      8 C           1.9909   30.8772    8.7815 C.ar    1  UNL1       -0.0035
      9 C           1.4570   29.7871    9.4805 C.ar    1  UNL1       -0.0003
     10 C           2.2972   28.8633   10.0890 C.ar    1  UNL1       -0.0000
     11 C           3.6733   29.0403   10.0146 C.ar    1  UNL1       -0.0003
     12 C           4.2070   30.1276    9.3112 C.ar    1  UNL1       -0.0035
     13 C           3.2570   32.4544    6.5546 C.ar    1  UNL1       -0.0108
     14 C           2.8566   31.3676    5.7586 C.ar    1  UNL1       -0.0035
     15 C           2.1875   31.5584    4.5403 C.ar    1  UNL1       -0.0003
     16 C           1.9141   32.8406    4.0773 C.ar    1  UNL1       -0.0000
     17 C           2.3488   33.9359    4.8127 C.ar    1  UNL1       -0.0003
     18 C           3.0226   33.7439    6.0266 C.ar    1  UNL1       -0.0035
     19 C           7.0411   35.0783   10.5413 C.3     1  UNL1        0.0233
     20 C           5.5663   34.7198   10.4409 C.3     1  UNL1        0.0935
     21 C           6.3321   32.8170    6.4995 C.3     1  UNL1        0.0201
     22 C           6.9136   31.9420    5.3613 C.3     1  UNL1        0.0723
     23 N           5.9666   31.8159    4.2208 N.3     1  UNL1       -0.2685
     24 C           5.6891   33.1035    3.5393 C.3     1  UNL1        0.1046
     25 C           6.8499   33.6027    2.6661 C.3     1  UNL1        0.1595
     26 O           7.1697   32.6454    1.6498 O.3     1  UNL1       -0.3508
     27 C           7.5422   31.3989    2.2515 C.3     1  UNL1        0.1595
     28 C           6.4261   30.8635    3.1715 C.3     1  UNL1        0.1046
@<TRIPOS>BOND
     1    19    20    1
     2    20     1    1
     3     1     2    1
     4     1     5   am
     5     2     3    1
     6     3    21    1
     7     3     4    1
     8    21    22    1
     9    22    23    1
    10    23    24    1
    11    23    28    1
    12    24    25    1
    13    25    26    1
    14    26    27    1
    15    27    28    1
    16     4     7    1
    17     4    13    1
    18     4     5    1
    19     7     8   ar
    20     7    12   ar
    21     8     9   ar
    22     9    10   ar
    23    10    11   ar
    24    11    12   ar
    25    13    14   ar
    26    13    18   ar
    27    14    15   ar
    28    15    16   ar
    29    16    17   ar
    30    17    18   ar
    31     5     6    2
#	Name:			CHEMBL175
#	Creating user name:	trannguyen
#	Creation time:		Tue Feb  8 18:26:14 2022


#	Modifying user name:	trannguyen
#	Modification time:	Tue Feb  8 18:26:14 2022

@<TRIPOS>MOLECULE
CHEMBL175
 16 16 0 0 0
SMALL
GASTEIGER

@<TRIPOS>ATOM
      1 C           5.3383   31.1924    9.3865 C.ar    1  UNL1       -0.0222
      2 C           4.0425   31.5694    9.0151 C.ar    1  UNL1       -0.0046
      3 C           2.9583   30.7086    9.2141 C.ar    1  UNL1       -0.0041
      4 C           3.1442   29.4353    9.7699 C.ar    1  UNL1       -0.0120
      5 C           4.4419   29.0621   10.1546 C.ar    1  UNL1       -0.0041
      6 C           5.5249   29.9311    9.9655 C.ar    1  UNL1       -0.0046
      7 C           1.9729   28.4797    9.9731 C.3     1  UNL1        0.1211
      8 C           0.6303   29.2208    9.9014 C.3     1  UNL1        0.0164
      9 C           2.0327   27.6564   11.2608 C.2     1  UNL1        0.3174
     10 O           1.8771   28.1367   12.3807 O.2     1  UNL1       -0.2499
     11 O           2.1904   26.3249   11.0977 O.3     1  UNL1       -0.4800
     12 H           2.3018   26.0412   10.1669 H       1  UNL1        0.2951
     13 C           6.5138   32.1159    9.1397 C.3     1  UNL1        0.0263
     14 C           9.0398   32.1816    9.4424 C.3     1  UNL1        0.0003
     15 C           7.6914   31.9336   10.1212 C.3     1  UNL1        0.0044
     16 C           7.5398   32.8747   11.3206 C.3     1  UNL1        0.0003
@<TRIPOS>BOND
     1    14    15    1
     2    15    16    1
     3    15    13    1
     4    13     1    1
     5     1     2   ar
     6     1     6   ar
     7     2     3   ar
     8     3     4   ar
     9     4     5   ar
    10     7     8    1
    11     7     9    1
    12     7     4    1
    13     9    10    2
    14     9    11    1
    15    11    12    1
    16     5     6   ar
#	Name:			CHEMBL1760
#	Creating user name:	trannguyen
#	Creation time:		Tue Feb  8 18:26:14 2022


#	Modifying user name:	trannguyen
#	Modification time:	Tue Feb  8 18:26:14 2022

@<TRIPOS>MOLECULE
CHEMBL1760
 20 20 0 0 0
SMALL
GASTEIGER

@<TRIPOS>ATOM
      1 C           1.5095   31.6495    8.0471 C.3     1  UNL1        0.1486
      2 O           0.2025   32.2033    8.2202 O.3     1  UNL1       -0.3786
      3 H          -0.3417   31.7881    7.5229 H       1  UNL1        0.2108
      4 C           1.7386   30.5267    9.0367 C.ar    1  UNL1        0.0116
      5 C           3.0311   30.2677    9.5258 C.ar    1  UNL1        0.0349
      6 C           3.2392   29.2423   10.4454 C.ar    1  UNL1        0.1365
      7 O           4.4819   28.9775   10.9445 O.3     1  UNL1       -0.5054
      8 C           2.1866   28.4494   10.8947 C.ar    1  UNL1        0.0732
      9 C           0.9084   28.7028   10.4092 C.ar    1  UNL1        0.1365
     10 O          -0.1652   27.9648   10.8144 O.3     1  UNL1       -0.5054
     11 C           0.6806   29.7213    9.4929 C.ar    1  UNL1        0.0349
     12 H           5.0993   29.6534   10.6176 H       1  UNL1        0.2922
     13 H           0.1316   27.3242   11.4796 H       1  UNL1        0.2922
     14 C           1.7141   31.2551    6.5596 C.3     1  UNL1        0.1027
     15 N           1.4430   32.3688    5.6266 N.3     1  UNL1       -0.2973
     16 H           0.6050   32.1412    5.0845 H       1  UNL1        0.1233
     17 C           2.2898   31.8861    3.3997 C.3     1  UNL1        0.0158
     18 C           2.5452   32.6892    4.6917 C.3     1  UNL1        0.0421
     19 C           3.9222   32.2732    5.2406 C.3     1  UNL1        0.0158
     20 C           2.5455   34.1845    4.3339 C.3     1  UNL1        0.0158
@<TRIPOS>BOND
     1    17    18    1
     2    18    19    1
     3    18    20    1
     4    18    15    1
     5    15    14    1
     6    15    16    1
     7    14     1    1
     8     1     2    1
     9     1     4    1
    10     2     3    1
    11     4     5   ar
    12     4    11   ar
    13     5     6   ar
    14     6     7    1
    15     6     8   ar
    16     7    12    1
    17     8     9   ar
    18     9    10    1
    19     9    11   ar
    20    10    13    1
#	Name:			CHEMBL1762
#	Creating user name:	trannguyen
#	Creation time:		Tue Feb  8 18:26:14 2022


#	Modifying user name:	trannguyen
#	Modification time:	Tue Feb  8 18:26:14 2022

@<TRIPOS>MOLECULE
CHEMBL1762
 17 17 0 0 0
SMALL
GASTEIGER

@<TRIPOS>ATOM
      1 N           3.1651   31.2136    8.5613 N.am    1  UNL1       -0.2833
      2 C           3.3259   32.5085    9.0281 C.2     1  UNL1        0.2401
      3 O           3.2899   32.8584   10.2102 O.2     1  UNL1       -0.2733
      4 H           3.6995   31.0270    7.7233 H       1  UNL1        0.1549
      5 C           0.2905   30.7040    9.0449 C.3     1  UNL1        0.0323
      6 C           1.4142   29.8692    9.6011 C.ar    1  UNL1       -0.0087
      7 C           1.0323   28.7259   10.3299 C.ar    1  UNL1       -0.0031
      8 C           1.9812   27.8650   10.8680 C.ar    1  UNL1       -0.0006
      9 C           3.3311   28.1516   10.7137 C.ar    1  UNL1       -0.0031
     10 C           3.7519   29.2853    9.9951 C.ar    1  UNL1       -0.0087
     11 C           5.2306   29.5772    9.9931 C.3     1  UNL1        0.0323
     12 C           2.7875   30.1122    9.3682 C.ar    1  UNL1        0.0423
     13 C           3.6465   33.5114    7.9025 C.3     1  UNL1        0.1287
     14 C           3.1561   32.9710    6.5628 C.3     1  UNL1        0.0267
     15 N           3.0270   34.8160    8.2112 N.3     1  UNL1       -0.3150
     16 H           2.0283   34.6603    8.3804 H       1  UNL1        0.1192
     17 H           3.0561   35.4000    7.3738 H       1  UNL1        0.1192
@<TRIPOS>BOND
     1     5     6    1
     2     6     7   ar
     3     6    12   ar
     4     7     8   ar
     5     8     9   ar
     6     9    10   ar
     7    10    11    1
     8    10    12   ar
     9    12     1    1
    10     1     2   am
    11     1     4    1
    12     2     3    2
    13     2    13    1
    14    13    14    1
    15    13    15    1
    16    15    16    1
    17    15    17    1
#	Name:			CHEMBL1766
#	Creating user name:	trannguyen
#	Creation time:		Tue Feb  8 18:26:14 2022


#	Modifying user name:	trannguyen
#	Modification time:	Tue Feb  8 18:26:14 2022

@<TRIPOS>MOLECULE
CHEMBL1766
 29 32 0 0 0
SMALL
GASTEIGER

@<TRIPOS>ATOM
      1 C           2.3693   31.1018    5.4368 C.3     1  UNL1        0.0004
      2 C           2.3325   31.9922    6.6780 C.3     1  UNL1        0.0070
      3 C           3.2384   33.2185    6.5190 C.3     1  UNL1        0.0005
      4 C           4.3631   33.1014    7.5558 C.3     1  UNL1        0.0031
      5 C           5.6874   32.4551    7.0823 C.3     1  UNL1        0.0334
      6 C           6.2522   33.0515    5.7829 C.3     1  UNL1        0.0071
      7 C           7.5622   32.3723    5.3809 C.3     1  UNL1        0.0226
      8 C           8.5731   32.4112    6.4998 C.2     1  UNL1       -0.0354
      9 C           9.7893   32.9438    6.2823 C.2     1  UNL1        0.0339
     10 C          10.7897   33.0835    7.3598 C.2     1  UNL1        0.1948
     11 O          11.9096   33.5208    7.1388 O.2     1  UNL1       -0.2866
     12 C          10.3740   32.6844    8.7164 C.2     1  UNL1        0.0378
     13 C           9.1649   32.1528    8.9412 C.2     1  UNL1       -0.0171
     14 C           8.1058   31.8854    7.8692 C.3     1  UNL1        0.0638
     15 C           7.9514   30.3496    7.7897 C.3     1  UNL1        0.0112
     16 C           6.7442   32.5958    8.2272 C.3     1  UNL1        0.1644
     17 F           7.0277   33.9522    8.3245 F       1  UNL1       -0.2369
     18 C           6.1481   32.2095    9.6152 C.3     1  UNL1        0.1408
     19 O           5.9752   33.3703   10.4366 O.3     1  UNL1       -0.3817
     20 C           4.8001   31.4955    9.5267 C.3     1  UNL1        0.0324
     21 C           3.7301   32.2592    8.7020 C.3     1  UNL1        0.0091
     22 C           2.9032   33.1878    9.6191 C.3     1  UNL1        0.0005
     23 C           2.8300   31.2460    7.9323 C.3     1  UNL1        0.0602
     24 H           6.4500   34.1040    9.9940 H       1  UNL1        0.2104
     25 C           1.6923   30.6648    8.7754 C.2     1  UNL1        0.1796
     26 O           0.5132   30.9923    8.6254 O.2     1  UNL1       -0.2934
     27 C           2.0845   29.6857    9.8797 C.3     1  UNL1        0.2019
     28 O           1.9168   30.2413   11.1736 O.3     1  UNL1       -0.3750
     29 H           1.9455   31.2132   11.0598 H       1  UNL1        0.2110
@<TRIPOS>BOND
     1     1     2    1
     2     2     3    1
     3     2    23    1
     4     3     4    1
     5     4     5    1
     6     4    21    1
     7     5     6    1
     8     5    16    1
     9     6     7    1
    10     7     8    1
    11     8     9    2
    12     8    14    1
    13     9    10    1
    14    10    11    2
    15    10    12    1
    16    12    13    2
    17    13    14    1
    18    14    15    1
    19    14    16    1
    20    16    17    1
    21    16    18    1
    22    18    20    1
    23    18    19    1
    24    19    24    1
    25    20    21    1
    26    21    22    1
    27    21    23    1
    28    23    25    1
    29    25    26    2
    30    25    27    1
    31    27    28    1
    32    28    29    1
#	Name:			CHEMBL1771
#	Creating user name:	trannguyen
#	Creation time:		Tue Feb  8 18:26:14 2022


#	Modifying user name:	trannguyen
#	Modification time:	Tue Feb  8 18:26:14 2022

@<TRIPOS>MOLECULE
CHEMBL1771
 21 23 0 0 0
SMALL
GASTEIGER

@<TRIPOS>ATOM
      1 C           1.6173   31.1052    8.8089 C.3     1  UNL1        0.1815
      2 N           2.4552   31.6396    7.6827 N.3     1  UNL1       -0.2573
      3 C           3.0411   32.9680    8.0176 C.3     1  UNL1        0.0783
      4 C           4.0942   33.4132    6.9765 C.3     1  UNL1        0.0500
      5 C           3.5808   33.1446    5.6015 C.ar    1  UNL1        0.0060
      6 S           4.3433   33.7136    4.1970 S.2     1  UNL1       -0.0910
      7 C           3.1946   32.9246    3.2012 C.ar    1  UNL1        0.0348
      8 C           2.2457   32.2476    3.9386 C.ar    1  UNL1        0.0042
      9 C           2.4700   32.3671    5.3447 C.ar    1  UNL1       -0.0036
     10 C           1.6392   31.7668    6.4454 C.3     1  UNL1        0.1000
     11 C           2.2119   29.8472    9.4462 C.ar    1  UNL1        0.0135
     12 C           3.6131   29.6769    9.4724 C.ar    1  UNL1       -0.0016
     13 C           4.1940   28.5398   10.0394 C.ar    1  UNL1       -0.0002
     14 C           3.3895   27.5497   10.5935 C.ar    1  UNL1        0.0008
     15 C           2.0042   27.6992   10.5827 C.ar    1  UNL1        0.0111
     16 C           1.4173   28.8378   10.0164 C.ar    1  UNL1        0.0555
     17 CL         -0.3086   28.9203   10.0402 Cl      1  UNL1       -0.0825
     18 C           1.4165   32.1712    9.9222 C.2     1  UNL1        0.3361
     19 O           2.1524   32.3664   10.8801 O.2     1  UNL1       -0.2482
     20 C           0.1371   34.0715   10.4516 C.3     1  UNL1        0.2557
     21 O           0.2762   32.8864    9.6668 O.3     1  UNL1       -0.4432
@<TRIPOS>BOND
     1    20    21    1
     2    21    18    1
     3    18    19    2
     4     1    11    1
     5     1     2    1
     6     1    18    1
     7    11    12   ar
     8    11    16   ar
     9    12    13   ar
    10    13    14   ar
    11    14    15   ar
    12    15    16   ar
    13    16    17    1
    14     2     3    1
    15     2    10    1
    16     3     4    1
    17     4     5    1
    18     5     6   ar
    19     5     9   ar
    20     6     7   ar
    21     7     8   ar
    22     8     9   ar
    23     9    10    1
#	Name:			CHEMBL177756
#	Creating user name:	trannguyen
#	Creation time:		Tue Feb  8 18:26:14 2022


#	Modifying user name:	trannguyen
#	Modification time:	Tue Feb  8 18:26:14 2022

@<TRIPOS>MOLECULE
CHEMBL177756
 27 30 0 0 0
SMALL
GASTEIGER

@<TRIPOS>ATOM
      1 C           3.6903   31.5200    8.3079 C.ar    1  UNL1        0.0061
      2 C           3.4397   31.9205    7.0315 C.ar    1  UNL1        0.0349
      3 C           4.3968   32.7289    6.2626 C.ar    1  UNL1        0.0063
      4 C           4.1707   33.0620    4.9847 C.ar    1  UNL1        0.0422
      5 C           2.9328   32.6328    4.2993 C.ar    1  UNL1        0.1988
      6 O           2.7396   32.8995    3.1196 O.2     1  UNL1       -0.2865
      7 C           1.9429   31.8733    5.0868 C.ar    1  UNL1        0.0795
      8 C           2.1818   31.5413    6.3625 C.ar    1  UNL1        0.1484
      9 O           1.2108   30.8236    7.0443 O.2     1  UNL1       -0.4533
     10 C           1.4776   30.3703    8.3083 C.ar    1  UNL1        0.1482
     11 C           0.4888   29.5767    8.8995 C.ar    1  UNL1        0.0741
     12 C           0.7023   29.0598   10.1699 C.ar    1  UNL1        0.1367
     13 O          -0.2258   28.2756   10.7870 O.3     1  UNL1       -0.5054
     14 C           1.8807   29.3281   10.8519 C.ar    1  UNL1        0.0368
     15 C           2.8580   30.1320   10.2578 C.ar    1  UNL1        0.0061
     16 C           2.6689   30.6660    8.9717 C.ar    1  UNL1        0.0349
     17 H          -1.0162   28.2279   10.2245 H       1  UNL1        0.2922
     18 C           5.1614   33.0943    9.6813 C.ar    1  UNL1        0.0755
     19 C           6.3790   33.3366   10.3420 C.ar    1  UNL1        0.0064
     20 C           7.4099   32.3984   10.2839 C.ar    1  UNL1        0.0002
     21 C           7.2310   31.2117    9.5778 C.ar    1  UNL1        0.0000
     22 C           6.0178   30.9540    8.9381 C.ar    1  UNL1        0.0002
     23 C           4.9659   31.8864    8.9853 C.ar    1  UNL1        0.0064
     24 O           3.9248   35.0094    8.9573 O.2     1  UNL1       -0.2451
     25 C           4.0949   34.1211    9.7719 C.2     1  UNL1        0.3380
     26 O           3.3211   33.9628   10.8695 O.3     1  UNL1       -0.4771
     27 H           3.6214   33.2767   11.4940 H       1  UNL1        0.2954
@<TRIPOS>BOND
     1    24    25    2
     2    25    26    1
     3    25    18    1
     4    26    27    1
     5    18    19   ar
     6    18    23   ar
     7    19    20   ar
     8    20    21   ar
     9    21    22   ar
    10    22    23   ar
    11    23     1    1
    12     1     2   ar
    13     1    16   ar
    14     2     3   ar
    15     2     8    1
    16     3     4   ar
    17     4     5   ar
    18     5     6    2
    19     5     7   ar
    20     7     8   ar
    21     8     9   ar
    22     9    10   ar
    23    10    11   ar
    24    10    16   ar
    25    11    12   ar
    26    12    13    1
    27    12    14   ar
    28    13    17    1
    29    14    15   ar
    30    15    16   ar
#	Name:			CHEMBL177
#	Creating user name:	trannguyen
#	Creation time:		Tue Feb  8 18:26:14 2022


#	Modifying user name:	trannguyen
#	Modification time:	Tue Feb  8 18:26:14 2022

@<TRIPOS>MOLECULE
CHEMBL177
 57 59 0 0 0
SMALL
GASTEIGER

@<TRIPOS>ATOM
      1 C           7.2758   32.5150   10.2273 C.3     1  UNL1        0.1027
      2 C           8.2993   31.6075    9.4598 C.3     1  UNL1        0.0402
      3 C           7.8631   30.9359    8.1438 C.3     1  UNL1        0.0827
      4 N           9.0867   30.3284    7.5829 N.3     1  UNL1       -0.3201
      5 C           7.3347   32.0712    7.2613 C.3     1  UNL1        0.1610
      6 C           6.1787   32.7731    8.0474 C.3     1  UNL1        0.1676
      7 O           6.5363   34.1728    8.1236 O.3     1  UNL1       -0.3795
      8 C           5.8239   32.5998    9.5371 C.3     1  UNL1        0.1647
      9 H           8.8679   29.7363    6.7850 H       1  UNL1        0.1189
     10 H           9.5611   29.7583    8.2824 H       1  UNL1        0.1189
     11 H           7.4992   34.3275    8.1596 H       1  UNL1        0.2105
     12 C           8.9181   34.3164   11.1931 C.2     1  UNL1        0.2494
     13 O           9.5068   33.6043   11.9346 O.2     1  UNL1       -0.2725
     14 N           7.8566   33.9222   10.3653 N.am    1  UNL1       -0.3015
     15 H           7.2939   34.6809   10.0000 H       1  UNL1        0.1495
     16 C           9.3604   35.7967   10.9829 C.3     1  UNL1        0.1879
     17 O          10.6420   36.0777   11.5337 O.3     1  UNL1       -0.3757
     18 H          10.5024   36.4581   12.4185 H       1  UNL1        0.2110
     19 C           9.2810   36.1043    9.4795 C.3     1  UNL1        0.0555
     20 N           6.9426   36.8520    9.2094 N.3     1  UNL1       -0.3211
     21 C           8.3368   37.2616    9.1343 C.3     1  UNL1        0.0682
     22 H           6.3313   37.5360    8.7759 H       1  UNL1        0.1189
     23 H           6.6741   36.7698   10.1926 H       1  UNL1        0.1189
     24 O           6.9671   31.7349    5.8980 O.3     1  UNL1       -0.3272
     25 C           6.1514   32.6034    5.0301 C.3     1  UNL1        0.2657
     26 O           6.4514   34.0263    5.0552 O.3     1  UNL1       -0.3271
     27 C           7.5480   34.4515    4.2322 C.3     1  UNL1        0.1624
     28 C           7.6915   33.7427    2.8251 C.3     1  UNL1        0.1682
     29 O           9.0431   33.7260    2.3024 O.3     1  UNL1       -0.3795
     30 C           7.1812   32.2983    2.8091 C.3     1  UNL1        0.1715
     31 O           7.1504   31.6818    1.5193 O.3     1  UNL1       -0.3794
     32 C           5.8716   32.1991    3.5528 C.3     1  UNL1        0.1964
     33 O           5.2670   30.9172    3.4006 O.3     1  UNL1       -0.3775
     34 H           9.4884   34.4731    2.7642 H       1  UNL1        0.2105
     35 H           8.0446   31.2865    1.4238 H       1  UNL1        0.2105
     36 H           5.4219   30.6662    2.4669 H       1  UNL1        0.2106
     37 C           7.7555   35.9792    4.1480 C.3     1  UNL1        0.0978
     38 N           7.9738   36.5868    5.4809 N.3     1  UNL1       -0.3191
     39 H           7.0682   36.7101    5.9498 H       1  UNL1        0.1189
     40 H           8.3463   37.5276    5.3522 H       1  UNL1        0.1189
     41 O           4.7338   31.7143    9.9990 O.3     1  UNL1       -0.3269
     42 C           3.9272   30.8523    9.0696 C.3     1  UNL1        0.2646
     43 O           3.9166   29.4198    9.4538 O.3     1  UNL1       -0.3260
     44 C           2.8094   28.8625   10.2120 C.3     1  UNL1        0.1750
     45 C           1.3808   29.2791    9.7971 C.3     1  UNL1        0.1566
     46 O           0.4561   29.1185   10.9064 O.3     1  UNL1       -0.3804
     47 C           1.2983   30.7527    9.3863 C.3     1  UNL1        0.1128
     48 N          -0.0215   30.9993    8.7060 N.3     1  UNL1       -0.3181
     49 C           2.4900   31.1856    8.5037 C.3     1  UNL1        0.1835
     50 O           2.2933   32.5347    8.0709 O.3     1  UNL1       -0.3783
     51 H           0.7462   28.3852   11.4745 H       1  UNL1        0.2105
     52 H          -0.3082   31.9656    8.8603 H       1  UNL1        0.1190
     53 H          -0.7306   30.4572    9.2220 H       1  UNL1        0.1190
     54 H           1.4064   32.4990    7.6555 H       1  UNL1        0.2106
     55 C           2.8270   27.2790   10.2313 C.3     1  UNL1        0.1693
     56 O           2.1069   26.7206   11.3323 O.3     1  UNL1       -0.3794
     57 H           2.2969   25.7625   11.3560 H       1  UNL1        0.2105
@<TRIPOS>BOND
     1    20    21    1
     2    20    22    1
     3    20    23    1
     4    21    19    1
     5    16    17    1
     6    16    12    1
     7    16    19    1
     8    17    18    1
     9    12    13    2
    10    12    14   am
    11    14    15    1
    12     1     2    1
    13     1     8    1
    14     1    14    1
    15     2     3    1
    16     3     4    1
    17     3     5    1
    18     4     9    1
    19     4    10    1
    20     5     6    1
    21     5    24    1
    22    24    25    1
    23    25    26    1
    24    25    32    1
    25    26    27    1
    26    27    37    1
    27    27    28    1
    28    37    38    1
    29    38    39    1
    30    38    40    1
    31    28    30    1
    32    28    29    1
    33    29    34    1
    34    30    31    1
    35    30    32    1
    36    31    35    1
    37    32    33    1
    38    33    36    1
    39     6     7    1
    40     6     8    1
    41     7    11    1
    42     8    41    1
    43    41    42    1
    44    42    43    1
    45    42    49    1
    46    43    44    1
    47    44    55    1
    48    44    45    1
    49    55    56    1
    50    56    57    1
    51    45    47    1
    52    45    46    1
    53    46    51    1
    54    47    48    1
    55    47    49    1
    56    48    52    1
    57    48    53    1
    58    49    50    1
    59    50    54    1
#	Name:			CHEMBL178
#	Creating user name:	trannguyen
#	Creation time:		Tue Feb  8 18:26:14 2022


#	Modifying user name:	trannguyen
#	Modification time:	Tue Feb  8 18:26:14 2022

@<TRIPOS>MOLECULE
CHEMBL178
 44 48 0 0 0
SMALL
GASTEIGER

@<TRIPOS>ATOM
      1 C           2.3699   31.8701    6.2001 C.ar    1  UNL1        0.1418
      2 C           1.1477   31.5823    6.8272 C.ar    1  UNL1        0.0370
      3 C           1.1018   31.2120    8.1712 C.ar    1  UNL1        0.0032
      4 C           2.2798   31.0977    8.8962 C.ar    1  UNL1        0.0035
      5 C           3.5033   31.3787    8.2793 C.ar    1  UNL1        0.0451
      6 C           3.5581   31.8047    6.9477 C.ar    1  UNL1        0.0760
      7 C           4.8754   32.2165    6.3859 C.2     1  UNL1        0.2017
      8 O           5.0729   32.4379    5.2072 O.2     1  UNL1       -0.2864
      9 C           6.0130   32.3930    7.3135 C.ar    1  UNL1        0.0784
     10 C           7.0945   33.2068    6.9655 C.ar    1  UNL1        0.1349
     11 O           7.1741   33.8489    5.7615 O.3     1  UNL1       -0.5057
     12 C           8.1241   33.4092    7.8840 C.ar    1  UNL1        0.0376
     13 C           8.2202   32.5929    9.0244 C.ar    1  UNL1        0.0156
     14 C           7.1253   31.8218    9.3886 C.ar    1  UNL1        0.1328
     15 O           7.1946   31.1612   10.5835 O.3     1  UNL1       -0.5057
     16 C           5.9904   31.7912    8.5689 C.ar    1  UNL1        0.0783
     17 C           4.7334   31.2248    9.0749 C.2     1  UNL1        0.1989
     18 O           4.7104   30.6977   10.1783 O.2     1  UNL1       -0.2865
     19 C           9.4772   32.6730    9.8577 C.3     1  UNL1        0.0634
     20 C          10.7258   32.9206    8.9877 C.3     1  UNL1        0.1458
     21 O          11.7447   33.4706    9.8567 O.3     1  UNL1       -0.3794
     22 C          10.5140   33.9331    7.8235 C.3     1  UNL1        0.0687
     23 C           9.1021   34.5527    7.7836 C.3     1  UNL1        0.1454
     24 H           6.4672   33.4966    5.1706 H       1  UNL1        0.2922
     25 H           6.2999   30.8116   10.7995 H       1  UNL1        0.2922
     26 H          12.5951   33.3516    9.3843 H       1  UNL1        0.2108
     27 C          11.3574   31.6053    8.4544 C.2     1  UNL1        0.1753
     28 C          10.9049   30.2672    8.9899 C.3     1  UNL1        0.0748
     29 O          12.2210   31.6573    7.5685 O.2     1  UNL1       -0.2936
     30 C           1.8416   33.5309    4.5894 C.3     1  UNL1        0.2525
     31 O           2.4412   32.2764    4.8955 O.3     1  UNL1       -0.4713
     32 O           8.9644   35.4404    8.9149 O.3     1  UNL1       -0.3283
     33 C           9.4907   36.7701    8.7702 C.3     1  UNL1        0.2368
     34 C           8.6708   37.7342    9.6357 C.3     1  UNL1        0.0793
     35 C           8.6743   37.2549   11.0900 C.3     1  UNL1        0.0855
     36 N           8.4367   38.3828   12.0084 N.3     1  UNL1       -0.3201
     37 C           9.9555   36.4450   11.4168 C.3     1  UNL1        0.1517
     38 O          10.2520   36.4922   12.8165 O.3     1  UNL1       -0.3806
     39 C          11.1602   36.8290   10.5380 C.3     1  UNL1        0.1458
     40 C          11.8861   38.0969   11.0007 C.3     1  UNL1        0.0348
     41 O          10.8687   36.8873    9.1303 O.3     1  UNL1       -0.3304
     42 H           7.4443   38.4341   12.2373 H       1  UNL1        0.1189
     43 H           8.9229   38.1803   12.8867 H       1  UNL1        0.1189
     44 H           9.5817   35.9376   13.2528 H       1  UNL1        0.2105
@<TRIPOS>BOND
     1    30    31    1
     2    31     1    1
     3     1     2   ar
     4     1     6   ar
     5     2     3   ar
     6     3     4   ar
     7     4     5   ar
     8     5     6   ar
     9     5    17    1
    10     6     7    1
    11     7     8    2
    12     7     9    1
    13     9    10   ar
    14     9    16   ar
    15    10    11    1
    16    10    12   ar
    17    11    24    1
    18    12    13   ar
    19    12    23    1
    20    13    14   ar
    21    13    19    1
    22    14    15    1
    23    14    16   ar
    24    15    25    1
    25    16    17    1
    26    17    18    2
    27    19    20    1
    28    20    22    1
    29    20    27    1
    30    20    21    1
    31    21    26    1
    32    27    28    1
    33    27    29    2
    34    22    23    1
    35    23    32    1
    36    32    33    1
    37    33    34    1
    38    33    41    1
    39    34    35    1
    40    35    36    1
    41    35    37    1
    42    36    42    1
    43    36    43    1
    44    37    38    1
    45    37    39    1
    46    38    44    1
    47    39    40    1
    48    39    41    1
#	Name:			CHEMBL1790041
#	Creating user name:	trannguyen
#	Creation time:		Tue Feb  8 18:26:14 2022


#	Modifying user name:	trannguyen
#	Modification time:	Tue Feb  8 18:26:14 2022

@<TRIPOS>MOLECULE
CHEMBL1790041
 23 23 0 0 0
SMALL
GASTEIGER

@<TRIPOS>ATOM
      1 C           3.3773   34.4221   10.1721 C.3     1  UNL1        0.1085
      2 C           2.6605   35.6082    9.4623 C.3     1  UNL1        0.2107
      3 N           2.2539   36.6469   10.4336 N.pl3   1  UNL1       -0.2215
      4 H           3.0429   37.1792   10.8028 H       1  UNL1        0.2920
      5 C           1.1513   37.5033   10.3941 C.2     1  UNL1        0.2859
      6 C           1.1909   38.7740   10.8635 C.2     1  UNL1        0.1924
      7 C          -0.7079   35.8637   10.4682 C.3     1  UNL1        0.2502
      8 N           0.0261   36.9385    9.7911 N.pl3   1  UNL1       -0.2188
      9 H           0.2834   36.5673    8.8623 H       1  UNL1        0.2921
     10 N           0.0559   39.6593   10.7260 N.pl3   1  UNL1       -0.1765
     11 O          -0.4899   40.0115   11.7966 O.2     1  UNL1       -0.1723
     12 O          -0.3227   39.9909    9.5995 O.co2   1  UNL1       -0.7768
     13 S           5.1974   34.3922    9.8814 S.3     1  UNL1       -0.1278
     14 C           5.3825   32.8112    8.9579 C.3     1  UNL1        0.1219
     15 C           4.2881   32.5682    7.9791 C.ar    1  UNL1        0.1333
     16 C           3.3407   31.5772    7.8016 C.ar    1  UNL1        0.0367
     17 C           2.5935   31.9346    6.6481 C.ar    1  UNL1        0.0372
     18 C           3.1629   33.0894    6.1559 C.ar    1  UNL1        0.1386
     19 O           4.1830   33.4854    6.9726 O.2     1  UNL1       -0.4598
     20 C           2.8991   33.9418    4.9554 C.3     1  UNL1        0.1377
     21 N           3.2955   33.3038    3.6829 N.3     1  UNL1       -0.2639
     22 C           4.6864   32.8477    3.7503 C.3     1  UNL1        0.0900
     23 C           2.4163   32.1818    3.3422 C.3     1  UNL1        0.0900
@<TRIPOS>UNITY_ATOM_ATTR
12 1
charge -1
@<TRIPOS>BOND
     1     7     8    1
     2     8     5    1
     3     8     9    1
     4     5     6    2
     5     5     3    1
     6     6    10    1
     7    10    11    2
     8    10    12    1
     9     3     2    1
    10     3     4    1
    11     2     1    1
    12     1    13    1
    13    13    14    1
    14    14    15    1
    15    15    16   ar
    16    15    19   ar
    17    16    17   ar
    18    17    18   ar
    19    18    20    1
    20    18    19   ar
    21    20    21    1
    22    21    22    1
    23    21    23    1
#	Name:			CHEMBL181
#	Creating user name:	trannguyen
#	Creation time:		Tue Feb  8 18:26:14 2022


#	Modifying user name:	trannguyen
#	Modification time:	Tue Feb  8 18:26:14 2022

@<TRIPOS>MOLECULE
CHEMBL181
 15 16 0 0 0
SMALL
GASTEIGER

@<TRIPOS>ATOM
      1 C          -0.7023   28.7848    9.9015 C.3     1  UNL1        0.1323
      2 C           0.5771   29.5349    9.5925 C.2     1  UNL1        0.3276
      3 N           0.4509   30.6113    8.8981 N.2     1  UNL1        0.0912
      4 S           1.7442   31.4933    8.5007 S.O2    1  UNL1        0.1830
      5 O           1.9296   31.4181    7.0640 O.2     1  UNL1       -0.1250
      6 O           1.6479   32.7787    9.1651 O.2     1  UNL1       -0.1250
      7 C           3.1655   30.7163    9.1934 C.ar    1  UNL1        0.1886
      8 C           4.4217   31.3004    9.0001 C.ar    1  UNL1        0.0374
      9 C           5.5369   30.6780    9.5445 C.ar    1  UNL1        0.0593
     10 CL          7.0965   31.3662    9.3251 Cl      1  UNL1       -0.0822
     11 C           5.3972   29.4941   10.2684 C.ar    1  UNL1        0.0150
     12 C           4.1292   28.9278   10.4509 C.ar    1  UNL1        0.0425
     13 C           2.9914   29.5386    9.9116 C.ar    1  UNL1        0.1567
     14 N           1.7282   28.9787   10.0898 N.pl3   1  UNL1       -0.1998
     15 H           1.6708   28.1213   10.6277 H       1  UNL1        0.2983
@<TRIPOS>BOND
     1     1     2    1
     2     2     3    2
     3     2    14    1
     4     3     4    1
     5     4     5    2
     6     4     6    2
     7     4     7    1
     8     7     8   ar
     9     7    13   ar
    10     8     9   ar
    11     9    10    1
    12     9    11   ar
    13    11    12   ar
    14    12    13   ar
    15    13    14    1
    16    14    15    1
#	Name:			CHEMBL182
#	Creating user name:	trannguyen
#	Creation time:		Tue Feb  8 18:26:14 2022


#	Modifying user name:	trannguyen
#	Modification time:	Tue Feb  8 18:26:14 2022

@<TRIPOS>MOLECULE
CHEMBL182
 23 24 0 0 0
SMALL
GASTEIGER

@<TRIPOS>ATOM
      1 N          -0.7420   29.4309    9.8713 N.pl3   1  UNL1       -0.3273
      2 C           0.5765   29.1145   10.1061 C.ar    1  UNL1        0.2176
      3 N           0.8116   27.9866   10.8031 N.ar    1  UNL1       -0.1778
      4 C           2.0888   27.6727   11.0784 C.ar    1  UNL1        0.2452
      5 O           2.2586   26.5152   11.7849 O.3     1  UNL1       -0.4908
      6 C           3.1376   28.4897   10.6713 C.ar    1  UNL1        0.1699
      7 N           4.5061   28.4544   10.8147 N.ar    1  UNL1       -0.2175
      8 C           4.9408   29.5326   10.1944 C.ar    1  UNL1        0.1817
      9 N           3.9127   30.2550    9.6533 N.ar    1  UNL1       -0.2678
     10 C           2.7441   29.6182    9.9629 C.ar    1  UNL1        0.1721
     11 N           1.4962   29.9931    9.6639 N.ar    1  UNL1       -0.1947
     12 H          -1.3330   28.9899   10.5635 H       1  UNL1        0.1452
     13 H          -0.8425   30.4304    9.7514 H       1  UNL1        0.1452
     14 H           1.3372   26.2106   11.8593 H       1  UNL1        0.2938
     15 C           4.0436   31.5117    8.9495 C.3     1  UNL1        0.2582
     16 O           3.6851   32.5638    9.8495 O.3     1  UNL1       -0.3294
     17 C           2.6351   33.4199    9.3493 C.3     1  UNL1        0.1757
     18 C           1.3964   33.3664   10.2570 C.3     1  UNL1        0.1693
     19 O           0.3273   32.6595    9.6333 O.3     1  UNL1       -0.3794
     20 H           0.2350   32.9972    8.7240 H       1  UNL1        0.2105
     21 C           3.1808   34.8582    9.3154 C.3     1  UNL1        0.1693
     22 O           2.8875   35.4843    8.0678 O.3     1  UNL1       -0.3794
     23 H           3.4630   35.0622    7.4043 H       1  UNL1        0.2105
@<TRIPOS>BOND
     1     1     2    1
     2     1    12    1
     3     1    13    1
     4     2     3   ar
     5     2    11   ar
     6     3     4   ar
     7     4     5    1
     8     4     6   ar
     9     5    14    1
    10     6     7   ar
    11     6    10   ar
    12     7     8   ar
    13     8     9   ar
    14     9    15    1
    15     9    10   ar
    16    15    16    1
    17    16    17    1
    18    17    18    1
    19    17    21    1
    20    18    19    1
    21    19    20    1
    22    21    22    1
    23    22    23    1
    24    10    11   ar
#	Name:			CHEMBL184618
#	Creating user name:	trannguyen
#	Creation time:		Tue Feb  8 18:26:14 2022


#	Modifying user name:	trannguyen
#	Modification time:	Tue Feb  8 18:26:14 2022

@<TRIPOS>MOLECULE
CHEMBL184618
 61 64 0 0 0
SMALL
GASTEIGER

@<TRIPOS>ATOM
      1 C           3.8537   33.5535    9.4496 C.3     1  UNL1        0.1741
      2 C           2.4499   33.8488   10.0263 C.3     1  UNL1        0.1541
      3 O           1.8921   35.0298    9.4177 O.3     1  UNL1       -0.3805
      4 C           1.4559   32.6875    9.7966 C.3     1  UNL1        0.0820
      5 N           0.1333   33.0074   10.3554 N.3     1  UNL1       -0.3202
      6 C           1.9949   31.4160   10.4418 C.3     1  UNL1        0.0361
      7 C           3.2460   30.9306    9.6862 C.3     1  UNL1        0.0824
      8 N           3.9712   29.8906   10.4402 N.3     1  UNL1       -0.3202
      9 C           4.1786   32.0646    9.0725 C.3     1  UNL1        0.1614
     10 H           2.6036   35.6940    9.3221 H       1  UNL1        0.2105
     11 H          -0.1778   33.8683    9.8889 H       1  UNL1        0.1189
     12 H           0.2079   33.2626   11.3376 H       1  UNL1        0.1189
     13 H           3.3198   29.2633   10.9046 H       1  UNL1        0.1189
     14 H           4.4779   30.3586   11.2230 H       1  UNL1        0.1189
     15 O           4.9672   34.2781   10.0565 O.3     1  UNL1       -0.3260
     16 C           8.5519   33.5301    9.7486 C.3     1  UNL1        0.1790
     17 C           8.3214   33.8749   11.2357 C.3     1  UNL1        0.1766
     18 O           6.8689   33.8994   11.4608 O.3     1  UNL1       -0.3260
     19 C           6.2431   33.6441   10.1899 C.3     1  UNL1        0.2658
     20 C           7.2879   34.1463    9.2114 C.3     1  UNL1        0.1968
     21 O           7.0275   33.7154    7.8931 O.3     1  UNL1       -0.3775
     22 H           6.5458   32.8979    7.9837 H       1  UNL1        0.2106
     23 C           8.8651   35.2714   11.5756 C.3     1  UNL1        0.1693
     24 O          10.2688   35.3281   11.3442 O.3     1  UNL1       -0.3794
     25 H          10.6599   34.6122   11.8803 H       1  UNL1        0.2105
     26 O           8.6309   32.0916    9.5589 O.3     1  UNL1       -0.3267
     27 C          10.9818   31.6690    6.7738 C.3     1  UNL1        0.1623
     28 O          10.0236   32.3659    7.6143 O.3     1  UNL1       -0.3279
     29 C           9.7580   31.6138    8.7958 C.3     1  UNL1        0.2524
     30 C          11.0254   31.5541    9.6903 C.3     1  UNL1        0.1376
     31 N          11.4747   32.9109   10.0875 N.3     1  UNL1       -0.3162
     32 C          12.1209   30.8064    8.8884 C.3     1  UNL1        0.1587
     33 O          11.7322   29.4343    8.7299 O.3     1  UNL1       -0.3804
     34 C          12.3320   31.4612    7.5088 C.3     1  UNL1        0.1671
     35 O          13.0301   32.6975    7.6655 O.3     1  UNL1       -0.3795
     36 H          11.3638   32.9908   11.1017 H       1  UNL1        0.1190
     37 H          10.7782   33.5756    9.7255 H       1  UNL1        0.1190
     38 H          12.5023   28.9548    8.3582 H       1  UNL1        0.2105
     39 H          12.6332   33.1475    8.4448 H       1  UNL1        0.2105
     40 N          12.3913   32.2813    4.7464 N.3     1  UNL1       -0.3191
     41 C          11.1188   32.4515    5.4510 C.3     1  UNL1        0.0978
     42 H          12.6476   31.2987    4.6842 H       1  UNL1        0.1189
     43 H          13.1292   32.7538    5.2704 H       1  UNL1        0.1189
     44 O           4.0228   31.8499    7.6477 O.3     1  UNL1       -0.3280
     45 C           3.7570   32.9681    6.8031 C.3     1  UNL1        0.2524
     46 O           4.8957   33.4237    6.0910 O.3     1  UNL1       -0.3279
     47 C           5.4209   32.5257    5.1019 C.3     1  UNL1        0.1623
     48 C           4.3457   31.9260    4.1639 C.3     1  UNL1        0.1671
     49 O           4.8521   30.8048    3.4219 O.3     1  UNL1       -0.3795
     50 C           3.1420   31.4246    4.9752 C.3     1  UNL1        0.1587
     51 O           2.1150   30.9440    4.0945 O.3     1  UNL1       -0.3804
     52 C           2.6129   32.5747    5.8402 C.3     1  UNL1        0.1376
     53 N           1.3492   32.2143    6.5279 N.3     1  UNL1       -0.3162
     54 H           5.5067   31.1268    2.7841 H       1  UNL1        0.2105
     55 H           2.5451   30.2282    3.5860 H       1  UNL1        0.2105
     56 H           1.5436   31.4497    7.1762 H       1  UNL1        0.1190
     57 H           0.7431   31.7997    5.8119 H       1  UNL1        0.1190
     58 C           6.4585   33.3656    4.3141 C.3     1  UNL1        0.0978
     59 N           7.0644   34.4196    5.1432 N.3     1  UNL1       -0.3191
     60 H           6.3128   34.8395    5.6996 H       1  UNL1        0.1189
     61 H           7.7017   33.9995    5.8183 H       1  UNL1        0.1189
@<TRIPOS>BOND
     1    40    41    1
     2    40    42    1
     3    40    43    1
     4    27    28    1
     5    27    34    1
     6    27    41    1
     7    28    29    1
     8    29    26    1
     9    29    30    1
    10    16    17    1
    11    16    20    1
    12    16    26    1
    13    17    23    1
    14    17    18    1
    15    23    24    1
    16    24    25    1
    17    18    19    1
    18    19    20    1
    19    19    15    1
    20     1     2    1
    21     1     9    1
    22     1    15    1
    23     2     3    1
    24     2     4    1
    25     3    10    1
    26     4     5    1
    27     4     6    1
    28     5    11    1
    29     5    12    1
    30     6     7    1
    31     7     8    1
    32     7     9    1
    33     8    13    1
    34     8    14    1
    35     9    44    1
    36    44    45    1
    37    45    46    1
    38    45    52    1
    39    46    47    1
    40    47    58    1
    41    47    48    1
    42    58    59    1
    43    59    60    1
    44    59    61    1
    45    48    50    1
    46    48    49    1
    47    49    54    1
    48    50    51    1
    49    50    52    1
    50    51    55    1
    51    52    53    1
    52    53    56    1
    53    53    57    1
    54    20    21    1
    55    21    22    1
    56    30    31    1
    57    30    32    1
    58    31    36    1
    59    31    37    1
    60    32    34    1
    61    32    33    1
    62    33    38    1
    63    34    35    1
    64    35    39    1
#	Name:			CHEMBL184
#	Creating user name:	trannguyen
#	Creation time:		Tue Feb  8 18:26:14 2022


#	Modifying user name:	trannguyen
#	Modification time:	Tue Feb  8 18:26:14 2022

@<TRIPOS>MOLECULE
CHEMBL184
 20 21 0 0 0
SMALL
GASTEIGER

@<TRIPOS>ATOM
      1 N          -0.7688   29.3780    9.8668 N.pl3   1  UNL1       -0.3273
      2 C           0.5569   29.0874   10.1210 C.ar    1  UNL1        0.2176
      3 N           0.7927   27.9612   10.8175 N.ar    1  UNL1       -0.1778
      4 C           2.0706   27.6672   11.1180 C.ar    1  UNL1        0.2452
      5 O           2.2476   26.5036   11.8127 O.3     1  UNL1       -0.4908
      6 C           3.1104   28.5064   10.7378 C.ar    1  UNL1        0.1699
      7 N           4.4758   28.4874   10.9078 N.ar    1  UNL1       -0.2175
      8 C           4.9081   29.5725   10.2988 C.ar    1  UNL1        0.1817
      9 N           3.8857   30.2821    9.7314 N.ar    1  UNL1       -0.2678
     10 C           2.7194   29.6277   10.0241 C.ar    1  UNL1        0.1721
     11 N           1.4669   29.9807    9.6912 N.ar    1  UNL1       -0.1947
     12 H          -1.3567   28.9140   10.5462 H       1  UNL1        0.1452
     13 H          -0.8933   30.3745    9.7587 H       1  UNL1        0.1452
     14 H           1.3324   26.1808   11.8688 H       1  UNL1        0.2938
     15 C           3.9796   31.4912    8.9380 C.3     1  UNL1        0.2582
     16 O           3.7729   32.6312    9.7752 O.3     1  UNL1       -0.3294
     17 C           2.7588   33.4908    9.2418 C.3     1  UNL1        0.1760
     18 C           1.5485   33.4405   10.1695 C.3     1  UNL1        0.1693
     19 O           0.4303   32.8870    9.4802 O.3     1  UNL1       -0.3794
     20 H           0.3274   33.4183    8.6680 H       1  UNL1        0.2105
@<TRIPOS>BOND
     1     1     2    1
     2     1    12    1
     3     1    13    1
     4     2     3   ar
     5     2    11   ar
     6     3     4   ar
     7     4     5    1
     8     4     6   ar
     9     5    14    1
    10     6     7   ar
    11     6    10   ar
    12     7     8   ar
    13     8     9   ar
    14     9    15    1
    15     9    10   ar
    16    15    16    1
    17    16    17    1
    18    17    18    1
    19    18    19    1
    20    19    20    1
    21    10    11   ar
#	Name:			CHEMBL185
#	Creating user name:	trannguyen
#	Creation time:		Tue Feb  8 18:26:14 2022


#	Modifying user name:	trannguyen
#	Modification time:	Tue Feb  8 18:26:14 2022

@<TRIPOS>MOLECULE
CHEMBL185
 11 11 0 0 0
SMALL
GASTEIGER

@<TRIPOS>ATOM
      1 O           5.1821   29.5735   10.0338 O.2     1  UNL1       -0.2467
      2 C           4.0013   29.2849   10.1937 C.ar    1  UNL1        0.3273
      3 N           2.9896   30.1115    9.7751 N.ar    1  UNL1       -0.3035
      4 H           3.2802   30.9695    9.3183 H       1  UNL1        0.1705
      5 C           1.6609   29.8306    9.9549 C.ar    1  UNL1        0.1108
      6 C           1.2806   28.7137   10.5756 C.ar    1  UNL1        0.2127
      7 F          -0.0119   28.4036   10.7818 F       1  UNL1       -0.1976
      8 C           2.3061   27.7701   11.0762 C.ar    1  UNL1        0.2901
      9 O           2.0219   26.7511   11.6944 O.2     1  UNL1       -0.2646
     10 N           3.6050   28.1260   10.8049 N.ar    1  UNL1       -0.2727
     11 H           4.3309   27.5088   11.1343 H       1  UNL1        0.1735
@<TRIPOS>BOND
     1     1     2    2
     2     2     3   ar
     3     2    10   ar
     4     3     4    1
     5     3     5   ar
     6     5     6   ar
     7     6     7    1
     8     6     8   ar
     9     8     9    2
    10     8    10   ar
    11    10    11    1
#	Name:			CHEMBL18701
#	Creating user name:	trannguyen
#	Creation time:		Tue Feb  8 18:26:14 2022


#	Modifying user name:	trannguyen
#	Modification time:	Tue Feb  8 18:26:14 2022

@<TRIPOS>MOLECULE
CHEMBL18701
 22 23 0 0 0
SMALL
GASTEIGER

@<TRIPOS>ATOM
      1 C           4.0367   30.4895    9.6461 C.ar    1  UNL1        0.1719
      2 C           3.8948   31.4461    8.6194 C.ar    1  UNL1        0.0358
      3 C           2.6585   31.6835    8.0227 C.ar    1  UNL1       -0.0173
      4 C           1.5500   31.0093    8.5288 C.ar    1  UNL1       -0.0009
      5 C           1.6711   30.0409    9.5061 C.ar    1  UNL1        0.0397
      6 C           2.8949   29.7518   10.0870 C.ar    1  UNL1        0.1724
      7 O           2.9000   28.8242   11.0983 O.3     1  UNL1       -0.4684
      8 C           2.3345   27.4984   10.8716 C.3     1  UNL1        0.2526
      9 O           5.2806   30.6432   10.2264 O.3     1  UNL1       -0.4724
     10 C           6.1762   31.6353    9.7659 C.3     1  UNL1        0.2056
     11 C           7.6369   31.1703    9.6058 C.3     1  UNL1        0.0473
     12 C           7.2789   31.8110    7.1358 C.3     1  UNL1        0.0001
     13 C           8.1316   31.0704    8.1712 C.3     1  UNL1        0.0038
     14 C           2.5209   32.6785    6.9012 C.3     1  UNL1        0.0478
     15 C           1.9110   32.0942    5.6193 C.3     1  UNL1        0.0970
     16 C           1.8885   33.0449    4.4122 C.3     1  UNL1        0.1108
     17 N           2.3228   32.2583    3.3165 N.am    1  UNL1       -0.2873
     18 C           2.8786   31.0531    3.7439 C.2     1  UNL1        0.3008
     19 O           3.4116   30.2524    3.0698 O.2     1  UNL1       -0.2528
     20 N           2.6894   30.9875    5.1227 N.am    1  UNL1       -0.2886
     21 H           2.4916   32.5724    2.3707 H       1  UNL1        0.1510
     22 H           2.8788   30.1155    5.5976 H       1  UNL1        0.1510
@<TRIPOS>BOND
     1    12    13    1
     2    13    11    1
     3    11    10    1
     4    10     9    1
     5     9     1    1
     6     1     2   ar
     7     1     6   ar
     8     2     3   ar
     9     3    14    1
    10     3     4   ar
    11    14    15    1
    12    15    16    1
    13    15    20    1
    14    16    17    1
    15    17    18   am
    16    17    21    1
    17    18    19    2
    18    18    20   am
    19    20    22    1
    20     4     5   ar
    21     5     6   ar
    22     6     7    1
    23     7     8    1
#	Name:			CHEMBL1873703
#	Creating user name:	trannguyen
#	Creation time:		Tue Feb  8 18:26:14 2022


#	Modifying user name:	trannguyen
#	Modification time:	Tue Feb  8 18:26:14 2022

@<TRIPOS>MOLECULE
CHEMBL1873703
 19 23 0 0 0
SMALL
GASTEIGER

@<TRIPOS>ATOM
      1 CL          8.3052   34.8457    6.7160 Cl      1  UNL1       -0.0851
      2 C           8.0011   33.7106    7.9406 C.2     1  UNL1        0.0588
      3 C           8.2044   33.8841    9.2528 C.2     1  UNL1        0.0588
      4 CL          8.8406   35.2273   10.0681 Cl      1  UNL1       -0.0851
      5 C           7.7366   32.6346    9.9310 C.3     1  UNL1        0.1233
      6 CL          7.4144   32.7378   11.6531 Cl      1  UNL1       -0.1083
      7 C           8.7045   31.4773    9.5556 C.3     1  UNL1        0.0250
      8 C          10.2665   31.5662    9.4431 C.3     1  UNL1        0.0314
      9 C          10.4562   30.2484    8.6400 C.3     1  UNL1        0.0051
     10 C           9.6633   30.7878    7.4033 C.3     1  UNL1        0.0314
     11 C           8.3102   31.1325    8.0697 C.3     1  UNL1        0.0250
     12 C           7.3579   32.3352    7.7244 C.3     1  UNL1        0.1233
     13 CL          6.5155   32.1112    6.2072 Cl      1  UNL1       -0.1083
     14 C           6.4708   32.3492    9.0289 C.3     1  UNL1        0.1669
     15 CL          5.6031   30.8130    9.3965 Cl      1  UNL1       -0.0964
     16 CL          5.1906   33.6342    9.0652 Cl      1  UNL1       -0.0964
     17 C          10.4049   32.0469    7.0761 C.3     1  UNL1        0.1421
     18 O          11.7723   32.1322    7.4776 O.3     1  UNL1       -0.3538
     19 C          10.7831   32.5926    8.4137 C.3     1  UNL1        0.1421
@<TRIPOS>BOND
     1     1     2    1
     2     2     3    2
     3     2    12    1
     4     3     5    1
     5     3     4    1
     6     5     7    1
     7     5    14    1
     8     5     6    1
     9     7     8    1
    10     7    11    1
    11     8     9    1
    12     8    19    1
    13     9    10    1
    14    10    11    1
    15    10    17    1
    16    11    12    1
    17    12    14    1
    18    12    13    1
    19    14    15    1
    20    14    16    1
    21    17    18    1
    22    17    19    1
    23    18    19    1
#	Name:			CHEMBL18797
#	Creating user name:	trannguyen
#	Creation time:		Tue Feb  8 18:26:14 2022


#	Modifying user name:	trannguyen
#	Modification time:	Tue Feb  8 18:26:14 2022

@<TRIPOS>MOLECULE
CHEMBL18797
 25 27 0 0 0
SMALL
GASTEIGER

@<TRIPOS>ATOM
      1 C           2.0297   31.5437    6.7368 C.2     1  UNL1       -0.0003
      2 C           2.4089   31.0987    7.9471 C.2     1  UNL1       -0.0042
      3 C           1.5121   30.4183    8.8926 C.2     1  UNL1       -0.0253
      4 C           0.0263   30.3710    8.7372 C.3     1  UNL1        0.0307
      5 C           2.2429   29.8690    9.8872 C.2     1  UNL1       -0.0150
      6 C           3.6548   30.2297    9.6643 C.ar    1  UNL1       -0.0015
      7 C           4.7739   29.9215   10.4255 C.ar    1  UNL1        0.0293
      8 C           5.9897   30.4880   10.0567 C.ar    1  UNL1        0.1401
      9 F           7.0874   30.2023   10.7692 F       1  UNL1       -0.2042
     10 C           6.0894   31.3650    8.9732 C.ar    1  UNL1        0.0296
     11 C           4.9621   31.6636    8.2026 C.ar    1  UNL1        0.0023
     12 C           3.7587   31.0568    8.5300 C.ar    1  UNL1       -0.0005
     13 C           4.6618   33.0654    3.7330 C.ar    1  UNL1        0.0252
     14 C           4.3969   31.6944    3.8085 C.ar    1  UNL1        0.0061
     15 C           3.5081   31.1947    4.7673 C.ar    1  UNL1        0.0005
     16 C           2.8844   32.0633    5.6660 C.ar    1  UNL1        0.0000
     17 C           3.1278   33.4389    5.5730 C.ar    1  UNL1        0.0005
     18 C           4.0057   33.9380    4.6046 C.ar    1  UNL1        0.0061
     19 C           7.2381   32.6798    2.8583 C.3     1  UNL1        0.0742
     20 S           5.7808   33.6991    2.4987 S.3     1  UNL1       -0.1127
     21 C           1.7896   29.0742   11.0671 C.3     1  UNL1        0.1354
     22 C           2.0495   27.5819   10.9534 C.2     1  UNL1        0.3183
     23 O           2.1740   26.8546   11.9362 O.2     1  UNL1       -0.2499
     24 O           2.1938   27.1023    9.6996 O.3     1  UNL1       -0.4799
     25 H           2.0499   27.7659    8.9965 H       1  UNL1        0.2951
@<TRIPOS>BOND
     1    19    20    1
     2    20    13    1
     3    13    14   ar
     4    13    18   ar
     5    14    15   ar
     6    15    16   ar
     7    16     1    1
     8    16    17   ar
     9     1     2    2
    10     2     3    1
    11     2    12    1
    12     3     4    1
    13     3     5    2
    14     5    21    1
    15     5     6    1
    16    21    22    1
    17    22    23    2
    18    22    24    1
    19    24    25    1
    20     6     7   ar
    21     6    12   ar
    22     7     8   ar
    23     8     9    1
    24     8    10   ar
    25    10    11   ar
    26    11    12   ar
    27    17    18   ar
#	Name:			CHEMBL188921
#	Creating user name:	trannguyen
#	Creation time:		Tue Feb  8 18:26:14 2022


#	Modifying user name:	trannguyen
#	Modification time:	Tue Feb  8 18:26:14 2022

@<TRIPOS>MOLECULE
CHEMBL188921
 22 23 0 0 0
SMALL
GASTEIGER

@<TRIPOS>ATOM
      1 C           3.4881   29.1267   10.4406 C.ar    1  UNL1        0.1448
      2 C           4.7946   29.6182   10.3192 C.ar    1  UNL1        0.0741
      3 C           5.2122   30.6602    9.4130 C.ar    1  UNL1        0.1474
      4 C           4.2931   31.3621    8.6266 C.ar    1  UNL1        0.1027
      5 C           3.0081   30.7959    8.8553 C.ar    1  UNL1        0.1474
      6 C           2.5866   29.7431    9.6422 C.ar    1  UNL1        0.0741
      7 C           1.5599   28.2090   11.2706 C.3     1  UNL1        0.2525
      8 O           2.9706   28.2357   11.2517 O.3     1  UNL1       -0.4712
      9 O           6.5656   30.8264    9.5487 O.3     1  UNL1       -0.4711
     10 C           6.9886   31.8647   10.4097 C.3     1  UNL1        0.2525
     11 C           4.7126   32.5602    7.4734 C.2     1  UNL1        0.1790
     12 O           4.0942   33.5684    7.3389 O.2     1  UNL1       -0.2911
     13 C           6.0957   32.7762    6.7384 C.3     1  UNL1        0.0708
     14 C           6.0579   33.0111    5.2322 C.3     1  UNL1        0.0254
     15 C           5.2791   31.9095    4.4443 C.3     1  UNL1        0.0725
     16 N           3.9199   32.0579    3.7931 N.3     1  UNL1       -0.2727
     17 C           2.8383   31.1363    4.1755 C.3     1  UNL1        0.0721
     18 C           1.6980   31.9606    4.8227 C.3     1  UNL1        0.0188
     19 C           2.0651   33.5255    4.4605 C.3     1  UNL1        0.0188
     20 C           3.3307   33.4108    3.5945 C.3     1  UNL1        0.0721
     21 O           1.8598   31.1772    8.2646 O.3     1  UNL1       -0.4711
     22 C           1.4138   31.9773    9.2673 C.3     1  UNL1        0.2525
@<TRIPOS>BOND
     1     7     8    1
     2     8     1    1
     3     1     2   ar
     4     1     6   ar
     5     2     3   ar
     6     3     9    1
     7     3     4   ar
     8     9    10    1
     9     4    11    1
    10     4     5   ar
    11    11    12    2
    12    11    13    1
    13    13    14    1
    14    14    15    1
    15    15    16    1
    16    16    17    1
    17    16    20    1
    18    17    18    1
    19    18    19    1
    20    19    20    1
    21     5    21    1
    22     5     6   ar
    23    21    22    1
#	Name:			CHEMBL189171
#	Creating user name:	trannguyen
#	Creation time:		Tue Feb  8 18:26:14 2022


#	Modifying user name:	trannguyen
#	Modification time:	Tue Feb  8 18:26:14 2022

@<TRIPOS>MOLECULE
CHEMBL189171
 30 32 0 0 0
SMALL
GASTEIGER

@<TRIPOS>ATOM
      1 C           4.0406   31.8608    5.0872 C.ar    1  UNL1        0.1388
      2 C           5.3037   32.3595    5.3820 C.ar    1  UNL1        0.0384
      3 C           5.6321   32.7901    6.6771 C.ar    1  UNL1        0.0207
      4 C           4.6503   32.7385    7.6846 C.ar    1  UNL1        0.0664
      5 C           3.3605   32.2874    7.3870 C.ar    1  UNL1        0.0169
      6 C           3.0752   31.8010    6.0933 C.ar    1  UNL1        0.0381
      7 C           2.5445   32.5195    8.5248 C.ar    1  UNL1        0.0025
      8 C           3.3287   33.1949    9.4495 C.ar    1  UNL1        0.0411
      9 C           2.8442   33.8561   10.7000 C.3     1  UNL1        0.0501
     10 N           4.6714   33.1298    9.0322 N.ar    1  UNL1       -0.2785
     11 C           5.8213   33.4675    9.8109 C.2     1  UNL1        0.2644
     12 O           5.6364   34.1765   10.8012 O.2     1  UNL1       -0.2666
     13 C           7.2372   33.0259    9.5856 C.ar    1  UNL1        0.0565
     14 C           8.2757   33.9183    9.2849 C.ar    1  UNL1        0.0056
     15 C           9.5681   33.4369    9.0117 C.ar    1  UNL1        0.0115
     16 C           9.8255   32.0661    9.0210 C.ar    1  UNL1        0.0577
     17 CL         11.4106   31.4830    8.6898 Cl      1  UNL1       -0.0822
     18 C           8.7978   31.1665    9.2845 C.ar    1  UNL1        0.0115
     19 C           7.5083   31.6448    9.5534 C.ar    1  UNL1        0.0056
     20 C           2.2966   31.8397    3.4719 C.3     1  UNL1        0.2525
     21 O           3.6027   31.4376    3.8621 O.3     1  UNL1       -0.4714
     22 C           1.0815   32.2156    8.6426 C.3     1  UNL1        0.1370
     23 C           0.8091   30.7946    9.0718 C.2     1  UNL1        0.3220
     24 O           0.2421   29.9358    8.3957 O.2     1  UNL1       -0.2497
     25 O           1.4570   30.5066   10.2312 O.3     1  UNL1       -0.4359
     26 C           2.0762   29.2162   10.2868 C.3     1  UNL1        0.3165
     27 C           1.3409   28.2924   11.2472 C.2     1  UNL1        0.3590
     28 O           1.8783   27.7099   12.1772 O.2     1  UNL1       -0.2461
     29 O           0.0139   28.1700   10.9858 O.3     1  UNL1       -0.4776
     30 H          -0.3105   28.7606   10.2805 H       1  UNL1        0.2952
@<TRIPOS>BOND
     1    20    21    1
     2    21     1    1
     3     1     2   ar
     4     1     6   ar
     5     2     3   ar
     6     3     4   ar
     7     4     5   ar
     8     4    10   ar
     9     5     6   ar
    10     5     7   ar
    11     7    22    1
    12     7     8   ar
    13    22    23    1
    14    23    24    2
    15    23    25    1
    16    25    26    1
    17    26    27    1
    18    27    28    2
    19    27    29    1
    20    29    30    1
    21     8     9    1
    22     8    10   ar
    23    10    11   am
    24    11    12    2
    25    11    13    1
    26    13    14   ar
    27    13    19   ar
    28    14    15   ar
    29    15    16   ar
    30    16    17    1
    31    16    18   ar
    32    18    19   ar
#	Name:			CHEMBL189
#	Creating user name:	trannguyen
#	Creation time:		Tue Feb  8 18:26:14 2022


#	Modifying user name:	trannguyen
#	Modification time:	Tue Feb  8 18:26:14 2022

@<TRIPOS>MOLECULE
CHEMBL189
 17 18 0 0 0
SMALL
GASTEIGER

@<TRIPOS>ATOM
      1 C           2.1751   33.0612   10.0268 C.3     1  UNL1        0.0499
      2 C           2.3571   32.5160    8.6344 C.ar    1  UNL1        0.0364
      3 N           2.8296   33.4339    7.7156 N.ar    1  UNL1       -0.3240
      4 H           3.0135   34.3886    8.0045 H       1  UNL1        0.1687
      5 C           3.0928   33.1703    6.3923 C.ar    1  UNL1        0.2670
      6 O           3.5127   34.0451    5.6428 O.2     1  UNL1       -0.2665
      7 C           2.8415   31.7765    5.9435 C.ar    1  UNL1        0.1242
      8 C           2.3742   30.8915    6.8406 C.ar    1  UNL1        0.0162
      9 C           2.1137   31.2461    8.2331 C.ar    1  UNL1        0.0125
     10 C           1.6017   30.2324    9.1749 C.ar    1  UNL1        0.0042
     11 C           2.4830   29.5252    9.9943 C.ar    1  UNL1        0.0207
     12 C           1.9587   28.5719   10.8504 C.ar    1  UNL1        0.0989
     13 N           0.6425   28.2849   10.9370 N.ar    1  UNL1       -0.2423
     14 C          -0.1887   28.9766   10.1289 C.ar    1  UNL1        0.0989
     15 C           0.2366   29.9469    9.2376 C.ar    1  UNL1        0.0207
     16 C           3.1131   31.4080    4.6142 C.1     1  UNL1        0.1052
     17 N           3.3355   31.1062    3.5259 N.1     1  UNL1       -0.1907
@<TRIPOS>BOND
     1     1     2    1
     2     2     3   ar
     3     2     9   ar
     4     3     4    1
     5     3     5   ar
     6     5     6    2
     7     5     7   ar
     8     7    16    1
     9     7     8   ar
    10    16    17    3
    11     8     9   ar
    12     9    10    1
    13    10    11   ar
    14    10    15   ar
    15    11    12   ar
    16    12    13   ar
    17    13    14   ar
    18    14    15   ar
#	Name:			CHEMBL19019
#	Creating user name:	trannguyen
#	Creation time:		Tue Feb  8 18:26:14 2022


#	Modifying user name:	trannguyen
#	Modification time:	Tue Feb  8 18:26:14 2022

@<TRIPOS>MOLECULE
CHEMBL19019
 27 32 0 0 0
SMALL
GASTEIGER

@<TRIPOS>ATOM
      1 O          -0.0860   33.4552   10.7535 O.2     1  UNL1       -0.2923
      2 C           0.8018   33.3356    9.9066 C.2     1  UNL1        0.1907
      3 C           1.7788   34.4959    9.6651 C.3     1  UNL1        0.0708
      4 C           3.0837   34.1337    8.9216 C.3     1  UNL1        0.0366
      5 C           3.4114   32.6542    9.1443 C.3     1  UNL1        0.1094
      6 O           3.4804   32.5589   10.5794 O.3     1  UNL1       -0.3850
      7 C           4.6224   31.8957    8.4711 C.3     1  UNL1        0.0870
      8 C           5.0390   30.6788    9.3445 C.3     1  UNL1        0.0445
      9 C           3.7110   29.8871    9.5607 C.ar    1  UNL1       -0.0214
     10 C           3.6458   28.6794   10.2494 C.ar    1  UNL1       -0.0012
     11 C           2.3873   28.1318   10.5775 C.ar    1  UNL1        0.0394
     12 C           1.1968   28.8146   10.2738 C.ar    1  UNL1        0.1674
     13 O          -0.0118   28.3316   10.6770 O.3     1  UNL1       -0.5029
     14 C           1.2626   30.0126    9.5919 C.ar    1  UNL1        0.1682
     15 C           2.4793   30.4797    9.1562 C.ar    1  UNL1        0.0164
     16 C           2.2959   31.8410    8.5120 C.3     1  UNL1        0.0902
     17 C           2.4524   31.9402    6.9220 C.3     1  UNL1        0.0277
     18 C           3.8425   32.5123    6.3260 C.3     1  UNL1        0.0727
     19 N           5.0114   32.6427    7.2808 N.3     1  UNL1       -0.2716
     20 C           0.8596   32.1341    8.9470 C.3     1  UNL1        0.2283
     21 O           0.2383   30.9040    9.3943 O.3     1  UNL1       -0.4686
     22 H           4.2921   33.0116   10.8710 H       1  UNL1        0.2103
     23 H           0.1338   27.5720   11.2613 H       1  UNL1        0.2923
     24 C           6.2768   32.1650    6.7197 C.3     1  UNL1        0.0721
     25 C           6.4039   32.5605    5.2780 C.3     1  UNL1        0.0160
     26 C           7.7538   32.4968    4.6061 C.3     1  UNL1        0.0014
     27 C           6.6786   31.5244    4.2142 C.3     1  UNL1        0.0014
@<TRIPOS>BOND
     1     1     2    2
     2     2     3    1
     3     2    20    1
     4     3     4    1
     5     4     5    1
     6     5     7    1
     7     5    16    1
     8     5     6    1
     9     6    22    1
    10     7     8    1
    11     7    19    1
    12     8     9    1
    13     9    10   ar
    14     9    15   ar
    15    10    11   ar
    16    11    12   ar
    17    12    14   ar
    18    12    13    1
    19    13    23    1
    20    14    15   ar
    21    14    21    1
    22    16    15    1
    23    16    17    1
    24    16    20    1
    25    17    18    1
    26    18    19    1
    27    19    24    1
    28    24    25    1
    29    25    26    1
    30    25    27    1
    31    26    27    1
    32    20    21    1
#	Name:			CHEMBL1902627
#	Creating user name:	trannguyen
#	Creation time:		Tue Feb  8 18:26:14 2022


#	Modifying user name:	trannguyen
#	Modification time:	Tue Feb  8 18:26:14 2022

@<TRIPOS>MOLECULE
CHEMBL1902627
 16 16 0 0 0
SMALL
GASTEIGER

@<TRIPOS>ATOM
      1 C           1.5597   31.7003    8.2857 C.3     1  UNL1        0.1492
      2 O           0.2115   32.1850    8.3750 O.3     1  UNL1       -0.3786
      3 H           0.2472   33.0997    8.0455 H       1  UNL1        0.2108
      4 C           1.7191   30.4718    9.1714 C.ar    1  UNL1        0.0162
      5 C           0.5939   29.7164    9.5551 C.ar    1  UNL1       -0.0011
      6 C           0.7127   28.5695   10.3433 C.ar    1  UNL1       -0.0002
      7 C           1.9700   28.1398   10.7671 C.ar    1  UNL1        0.0008
      8 C           3.0966   28.8738   10.4093 C.ar    1  UNL1        0.0112
      9 C           2.9791   30.0259    9.6235 C.ar    1  UNL1        0.0560
     10 CL          4.4371   30.8753    9.2514 Cl      1  UNL1       -0.0825
     11 C           1.8967   31.4030    6.7971 C.3     1  UNL1        0.1028
     12 N           1.1141   32.2154    5.8287 N.3     1  UNL1       -0.2962
     13 H           0.2054   31.7672    5.6999 H       1  UNL1        0.1233
     14 C           2.3368   33.6936    4.2666 C.3     1  UNL1        0.0171
     15 C           1.7643   32.2884    4.5008 C.3     1  UNL1        0.0541
     16 C           2.8765   31.2524    4.3122 C.3     1  UNL1        0.0171
@<TRIPOS>BOND
     1    14    15    1
     2    15    16    1
     3    15    12    1
     4    12    11    1
     5    12    13    1
     6    11     1    1
     7     1     2    1
     8     1     4    1
     9     2     3    1
    10     4     5   ar
    11     4     9   ar
    12     5     6   ar
    13     6     7   ar
    14     7     8   ar
    15     8     9   ar
    16     9    10    1
#	Name:			CHEMBL1902981
#	Creating user name:	trannguyen
#	Creation time:		Tue Feb  8 18:26:14 2022


#	Modifying user name:	trannguyen
#	Modification time:	Tue Feb  8 18:26:14 2022

@<TRIPOS>MOLECULE
CHEMBL1902981
 19 20 0 0 0
SMALL
GASTEIGER

@<TRIPOS>ATOM
      1 C           5.8731   31.2877    9.1154 C.2     1  UNL1        0.1740
      2 O           6.9588   30.8272    9.4123 O.2     1  UNL1       -0.2913
      3 C           2.3861   29.1185   10.5032 C.ar    1  UNL1       -0.0222
      4 C           2.2459   30.4061    9.9945 C.ar    1  UNL1       -0.0042
      5 C           3.3299   31.0290    9.3852 C.ar    1  UNL1        0.0025
      6 C           4.6242   30.5204    9.4834 C.ar    1  UNL1        0.0347
      7 C           4.7672   29.2099    9.9578 C.ar    1  UNL1        0.0025
      8 C           3.6469   28.5095   10.4344 C.ar    1  UNL1       -0.0042
      9 C          -0.1120   28.7856   10.1852 C.3     1  UNL1        0.0050
     10 C           1.1363   28.4071   10.9581 C.3     1  UNL1        0.0264
     11 C           5.7225   32.6662    8.3641 C.3     1  UNL1        0.0779
     12 C           6.6162   33.8091    8.8178 C.3     1  UNL1        0.0096
     13 C           5.9215   32.4514    6.8222 C.3     1  UNL1        0.0798
     14 N           4.9859   33.2353    5.9709 N.3     1  UNL1       -0.2723
     15 C           5.2242   33.0535    4.5301 C.3     1  UNL1        0.0721
     16 C           4.8360   31.6607    4.0336 C.3     1  UNL1        0.0174
     17 C           3.3713   31.3645    4.3396 C.3     1  UNL1        0.0029
     18 C           3.0101   31.6825    5.7885 C.3     1  UNL1        0.0174
     19 C           3.5603   33.0272    6.2595 C.3     1  UNL1        0.0721
@<TRIPOS>BOND
     1     9    10    1
     2    10     3    1
     3     3     4   ar
     4     3     8   ar
     5     4     5   ar
     6     5     6   ar
     7     6     1    1
     8     6     7   ar
     9     1     2    2
    10     1    11    1
    11    11    12    1
    12    11    13    1
    13    13    14    1
    14    14    15    1
    15    14    19    1
    16    15    16    1
    17    16    17    1
    18    17    18    1
    19    18    19    1
    20     7     8   ar
#	Name:			CHEMBL1908008
#	Creating user name:	trannguyen
#	Creation time:		Tue Feb  8 18:26:14 2022


#	Modifying user name:	trannguyen
#	Modification time:	Tue Feb  8 18:26:14 2022

@<TRIPOS>MOLECULE
CHEMBL1908008
 31 34 0 0 0
SMALL
GASTEIGER

@<TRIPOS>ATOM
      1 C           8.7722   33.1796    7.7235 C.3     1  UNL1        0.0000
      2 C           8.2637   32.2336    6.6043 C.3     1  UNL1        0.0000
      3 C           8.3042   30.8487    7.2089 C.3     1  UNL1        0.0000
      4 C           7.7964   31.0527    8.6352 C.3     1  UNL1        0.0003
      5 C           6.2378   30.9668    8.7226 C.3     1  UNL1        0.0047
      6 C           5.8421   30.1332    9.9615 C.3     1  UNL1        0.0254
      7 C           4.3750   30.1147   10.2293 C.2     1  UNL1       -0.0345
      8 C           3.4956   30.9964    9.6949 C.2     1  UNL1       -0.0443
      9 C           2.0152   30.7493    9.8123 C.3     1  UNL1        0.0510
     10 C           1.4106   30.4925    8.4254 C.3     1  UNL1        0.1145
     11 O          -0.0152   30.5225    8.5096 O.3     1  UNL1       -0.3841
     12 C           1.8501   31.5176    7.3727 C.3     1  UNL1        0.0300
     13 C           3.3590   31.8196    7.3900 C.3     1  UNL1        0.0086
     14 C           3.9189   32.1698    8.8061 C.3     1  UNL1        0.0421
     15 C           5.5071   32.3317    8.7368 C.3     1  UNL1        0.0061
     16 C           6.0765   33.2196    9.8591 C.3     1  UNL1        0.0004
     17 C           7.5613   33.0595   10.1505 C.3     1  UNL1        0.0000
     18 C           8.4316   32.4172    9.0683 C.3     1  UNL1        0.0000
     19 C           9.7989   32.1188    9.7534 C.3     1  UNL1        0.0000
     20 H          -0.2828   29.9139    9.2197 H       1  UNL1        0.2103
     21 C           3.2540   33.4992    9.2984 C.3     1  UNL1        0.1407
     22 O           3.2288   34.4823    8.2671 O.3     1  UNL1       -0.3817
     23 H           2.6920   35.2227    8.5993 H       1  UNL1        0.2105
     24 C           8.4036   34.6685    7.4303 C.3     1  UNL1        0.0000
     25 C           8.2686   34.8377    5.8938 C.3     1  UNL1        0.0000
     26 C           9.3592   35.7826    7.9615 C.3     1  UNL1        0.0000
     27 C           9.3518   35.9933    9.4825 C.3     1  UNL1        0.0000
     28 C           8.3085   36.9831   10.0379 C.3     1  UNL1        0.0000
     29 C           9.6967   36.7955   12.1285 C.3     1  UNL1        0.0000
     30 C           8.4628   37.4614   11.4968 C.3     1  UNL1        0.0000
     31 C           8.6124   38.9785   11.6144 C.3     1  UNL1        0.0000
@<TRIPOS>BOND
     1    29    30    1
     2    30    31    1
     3    30    28    1
     4    28    27    1
     5    27    26    1
     6    26    24    1
     7    24    25    1
     8     1     2    1
     9     1    18    1
    10     1    24    1
    11     2     3    1
    12     3     4    1
    13     4     5    1
    14     4    18    1
    15     5     6    1
    16     5    15    1
    17     6     7    1
    18     7     8    2
    19     8     9    1
    20     8    14    1
    21     9    10    1
    22    10    12    1
    23    10    11    1
    24    11    20    1
    25    12    13    1
    26    13    14    1
    27    14    15    1
    28    14    21    1
    29    21    22    1
    30    22    23    1
    31    15    16    1
    32    16    17    1
    33    17    18    1
    34    18    19    1
#	Name:			CHEMBL1908355
#	Creating user name:	trannguyen
#	Creation time:		Tue Feb  8 18:26:14 2022


#	Modifying user name:	trannguyen
#	Modification time:	Tue Feb  8 18:26:14 2022

@<TRIPOS>MOLECULE
CHEMBL1908355
 24 26 0 0 0
SMALL
GASTEIGER

@<TRIPOS>ATOM
      1 N           0.1771   28.5656   10.7903 N.am    1  UNL1       -0.3126
      2 C           1.5268   28.7377   10.8545 C.2     1  UNL1        0.3107
      3 O           2.1435   28.1436   11.7351 O.2     1  UNL1       -0.2521
      4 N           2.0757   29.5732    9.8930 N.am    1  UNL1       -0.1891
      5 C           1.3663   30.2553    8.8955 C.2     1  UNL1        0.2627
      6 O           0.1601   30.2823    8.6812 O.2     1  UNL1       -0.2690
      7 C           2.3834   31.0085    8.0897 C.2     1  UNL1        0.0897
      8 C           1.9860   31.7170    7.0169 C.2     1  UNL1        0.1439
      9 O           0.6696   31.8442    6.6119 O.2     1  UNL1       -0.5049
     10 C           3.6890   30.7522    8.7036 C.ar    1  UNL1        0.0224
     11 C           4.9683   31.2140    8.4277 C.ar    1  UNL1        0.0129
     12 C           6.0197   30.7819    9.2395 C.ar    1  UNL1        0.0578
     13 CL          7.6162   31.3489    8.9344 Cl      1  UNL1       -0.0822
     14 C           5.7960   29.9002   10.3040 C.ar    1  UNL1        0.0127
     15 C           4.5056   29.4401   10.5808 C.ar    1  UNL1        0.0162
     16 C           3.4575   29.8777    9.7807 C.ar    1  UNL1        0.0627
     17 H          -0.2643   28.0166   11.5147 H       1  UNL1        0.1465
     18 H          -0.4043   29.1440   10.1921 H       1  UNL1        0.1465
     19 H           0.0964   31.3230    7.2123 H       1  UNL1        0.2922
     20 C           2.8791   32.4112    6.1593 C.ar    1  UNL1        0.0633
     21 C           3.2975   33.7301    6.2118 C.ar    1  UNL1        0.0100
     22 C           4.1433   34.0862    5.1202 C.ar    1  UNL1        0.0076
     23 C           4.3412   33.0323    4.2582 C.ar    1  UNL1        0.0355
     24 S           3.5305   31.6200    4.7744 S.2     1  UNL1       -0.0834
@<TRIPOS>BOND
     1     1     2   am
     2     1    17    1
     3     1    18    1
     4     2     3    2
     5     2     4   am
     6     4     5   am
     7     4    16    1
     8     5     6    2
     9     5     7    1
    10     7     8    2
    11     7    10    1
    12     8     9    1
    13     8    20    1
    14     9    19    1
    15    20    21   ar
    16    20    24   ar
    17    21    22   ar
    18    22    23   ar
    19    23    24   ar
    20    10    11   ar
    21    10    16   ar
    22    11    12   ar
    23    12    13    1
    24    12    14   ar
    25    14    15   ar
    26    15    16   ar
#	Name:			CHEMBL1909048
#	Creating user name:	trannguyen
#	Creation time:		Tue Feb  8 18:26:14 2022


#	Modifying user name:	trannguyen
#	Modification time:	Tue Feb  8 18:26:14 2022

@<TRIPOS>MOLECULE
CHEMBL1909048
 22 24 0 0 0
SMALL
GASTEIGER

@<TRIPOS>ATOM
      1 O           4.0324   31.8947    9.2756 O.2     1  UNL1       -0.2699
      2 C           3.1930   31.3733    8.5462 C.2     1  UNL1        0.2498
      3 N           3.0749   31.6675    7.1787 N.am    1  UNL1       -0.2761
      4 C           2.1517   31.0372    6.2301 C.3     1  UNL1        0.0937
      5 C           1.4055   32.0740    5.3926 C.3     1  UNL1        0.0219
      6 C           2.3508   33.0653    4.6922 C.3     1  UNL1        0.0078
      7 C           3.2823   33.6772    5.7537 C.3     1  UNL1        0.0219
      8 C           4.0150   32.6221    6.5912 C.3     1  UNL1        0.0937
      9 C           2.2771   30.3752    9.1546 C.ar    1  UNL1        0.0641
     10 C           0.8931   30.5766    9.0635 C.ar    1  UNL1        0.0054
     11 C           0.0061   29.7032    9.6971 C.ar    1  UNL1        0.0002
     12 C           0.4955   28.5867   10.3708 C.ar    1  UNL1        0.0009
     13 C           1.8687   28.3350   10.3960 C.ar    1  UNL1        0.0115
     14 C           2.7648   29.2269    9.7924 C.ar    1  UNL1        0.0620
     15 CL          4.4472   28.8544    9.9167 Cl      1  UNL1       -0.0821
     16 C           3.0869   32.3824    3.5172 C.3     1  UNL1        0.0265
     17 C           4.5887   32.5441    3.5499 C.ar    1  UNL1       -0.0222
     18 C           5.1782   33.7864    3.2819 C.ar    1  UNL1       -0.0043
     19 C           6.5655   33.9363    3.3150 C.ar    1  UNL1       -0.0003
     20 C           7.3784   32.8489    3.6267 C.ar    1  UNL1       -0.0000
     21 C           6.8045   31.6094    3.9017 C.ar    1  UNL1       -0.0003
     22 C           5.4169   31.4555    3.8591 C.ar    1  UNL1       -0.0043
@<TRIPOS>BOND
     1     1     2    2
     2     2     9    1
     3     2     3   am
     4     9    10   ar
     5     9    14   ar
     6    10    11   ar
     7    11    12   ar
     8    12    13   ar
     9    13    14   ar
    10    14    15    1
    11     3     4    1
    12     3     8    1
    13     4     5    1
    14     5     6    1
    15     6    16    1
    16     6     7    1
    17    16    17    1
    18    17    18   ar
    19    17    22   ar
    20    18    19   ar
    21    19    20   ar
    22    20    21   ar
    23    21    22   ar
    24     7     8    1
#	Name:			CHEMBL1909049
#	Creating user name:	trannguyen
#	Creation time:		Tue Feb  8 18:26:14 2022


#	Modifying user name:	trannguyen
#	Modification time:	Tue Feb  8 18:26:14 2022

@<TRIPOS>MOLECULE
CHEMBL1909049
 23 25 0 0 0
SMALL
GASTEIGER

@<TRIPOS>ATOM
      1 C           2.8376   31.7087    9.0496 C.2     1  UNL1        0.2520
      2 O           3.2015   32.6173    9.8377 O.2     1  UNL1       -0.2698
      3 N           2.6790   32.0545    7.6838 N.am    1  UNL1       -0.2760
      4 C           2.2739   31.0863    6.6824 C.3     1  UNL1        0.0937
      5 C           2.1074   31.6029    5.2753 C.3     1  UNL1        0.0219
      6 C           3.2708   32.4793    4.8147 C.3     1  UNL1        0.0078
      7 C           3.2253   33.6846    5.7694 C.3     1  UNL1        0.0219
      8 C           3.3791   33.2766    7.2387 C.3     1  UNL1        0.0937
      9 C           3.7882   29.3259    9.8946 C.ar    1  UNL1        0.1430
     10 C           3.4323   28.1136   10.5295 C.ar    1  UNL1        0.0371
     11 C           2.1112   27.7696   10.7828 C.ar    1  UNL1        0.0031
     12 C           1.1087   28.6632   10.4602 C.ar    1  UNL1        0.0003
     13 C           1.4461   29.9022    9.9143 C.ar    1  UNL1        0.0076
     14 C           2.7808   30.2936    9.6249 C.ar    1  UNL1        0.0875
     15 C           5.9572   30.2205   10.5085 C.3     1  UNL1        0.2525
     16 O           5.0946   29.5516    9.5870 O.3     1  UNL1       -0.4713
     17 C           4.6892   31.8415    4.8002 C.3     1  UNL1        0.0265
     18 C           5.6520   32.1741    3.6768 C.ar    1  UNL1       -0.0222
     19 C           6.5558   31.1918    3.2313 C.ar    1  UNL1       -0.0043
     20 C           7.4547   31.4592    2.1905 C.ar    1  UNL1       -0.0003
     21 C           7.4418   32.6978    1.5552 C.ar    1  UNL1       -0.0000
     22 C           6.5446   33.6705    1.9714 C.ar    1  UNL1       -0.0003
     23 C           5.6904   33.4188    3.0436 C.ar    1  UNL1       -0.0043
@<TRIPOS>BOND
     1    15    16    1
     2    16     9    1
     3     9    10   ar
     4     9    14   ar
     5    10    11   ar
     6    11    12   ar
     7    12    13   ar
     8    13    14   ar
     9    14     1    1
    10     1     2    2
    11     1     3   am
    12     3     4    1
    13     3     8    1
    14     4     5    1
    15     5     6    1
    16     6    17    1
    17     6     7    1
    18    17    18    1
    19    18    19   ar
    20    18    23   ar
    21    19    20   ar
    22    20    21   ar
    23    21    22   ar
    24    22    23   ar
    25     7     8    1
#	Name:			CHEMBL1909050
#	Creating user name:	trannguyen
#	Creation time:		Tue Feb  8 18:26:14 2022


#	Modifying user name:	trannguyen
#	Modification time:	Tue Feb  8 18:26:14 2022

@<TRIPOS>MOLECULE
CHEMBL1909050
 22 24 0 0 0
SMALL
GASTEIGER

@<TRIPOS>ATOM
      1 C           3.0015   31.4350    8.7414 C.2     1  UNL1        0.2487
      2 O           3.8064   32.0061    9.4881 O.2     1  UNL1       -0.2699
      3 N           2.8957   31.8021    7.3760 N.am    1  UNL1       -0.2761
      4 C           2.2368   30.9873    6.3523 C.3     1  UNL1        0.0937
      5 C           1.9585   31.6909    5.0247 C.3     1  UNL1        0.0219
      6 C           3.1585   32.4895    4.4976 C.3     1  UNL1        0.0078
      7 C           3.5536   33.4665    5.6106 C.3     1  UNL1        0.0219
      8 C           3.9093   32.7560    6.9141 C.3     1  UNL1        0.0937
      9 C           4.2203   29.0252   10.0651 C.3     1  UNL1        0.0312
     10 C           2.7314   29.2534   10.0126 C.ar    1  UNL1       -0.0175
     11 C           1.9000   28.2673   10.5806 C.ar    1  UNL1       -0.0041
     12 C           0.5129   28.3701   10.5122 C.ar    1  UNL1       -0.0003
     13 C          -0.0632   29.4278    9.8231 C.ar    1  UNL1        0.0001
     14 C           0.7481   30.3935    9.2227 C.ar    1  UNL1        0.0042
     15 C           2.1450   30.3677    9.3631 C.ar    1  UNL1        0.0496
     16 C           4.3079   31.5672    4.0265 C.3     1  UNL1        0.0265
     17 C           5.6072   32.2934    3.7510 C.ar    1  UNL1       -0.0222
     18 C           6.7660   31.9925    4.4800 C.ar    1  UNL1       -0.0043
     19 C           7.9640   32.6643    4.2241 C.ar    1  UNL1       -0.0003
     20 C           8.0207   33.6390    3.2306 C.ar    1  UNL1       -0.0000
     21 C           6.8784   33.9435    2.4935 C.ar    1  UNL1       -0.0003
     22 C           5.6774   33.2775    2.7537 C.ar    1  UNL1       -0.0043
@<TRIPOS>BOND
     1     9    10    1
     2    10    11   ar
     3    10    15   ar
     4    11    12   ar
     5    12    13   ar
     6    13    14   ar
     7    14    15   ar
     8    15     1    1
     9     1     2    2
    10     1     3   am
    11     3     4    1
    12     3     8    1
    13     4     5    1
    14     5     6    1
    15     6    16    1
    16     6     7    1
    17    16    17    1
    18    17    18   ar
    19    17    22   ar
    20    18    19   ar
    21    19    20   ar
    22    20    21   ar
    23    21    22   ar
    24     7     8    1
#	Name:			CHEMBL1909051
#	Creating user name:	trannguyen
#	Creation time:		Tue Feb  8 18:26:14 2022


#	Modifying user name:	trannguyen
#	Modification time:	Tue Feb  8 18:26:14 2022

@<TRIPOS>MOLECULE
CHEMBL1909051
 25 27 0 0 0
SMALL
GASTEIGER

@<TRIPOS>ATOM
      1 O           3.2789   33.0774    8.5825 O.2     1  UNL1       -0.2699
      2 C           2.9530   32.0649    7.9051 C.2     1  UNL1        0.2490
      3 N           2.8799   32.2089    6.5185 N.am    1  UNL1       -0.2761
      4 C           2.5143   31.1302    5.6561 C.3     1  UNL1        0.0937
      5 C           2.6932   31.3245    4.1639 C.3     1  UNL1        0.0219
      6 C           3.8135   32.3129    3.8241 C.3     1  UNL1        0.0078
      7 C           3.3930   33.6447    4.4689 C.3     1  UNL1        0.0219
      8 C           2.8853   33.5430    5.9195 C.3     1  UNL1        0.0937
      9 C           2.5575   30.8203    8.7235 C.ar    1  UNL1        0.0575
     10 C           1.1273   30.6877    8.6814 C.ar    1  UNL1        0.0045
     11 C           0.3856   29.7637    9.4221 C.ar    1  UNL1        0.0001
     12 C           1.0415   28.9062   10.2697 C.ar    1  UNL1       -0.0001
     13 C           2.4224   28.9592   10.3082 C.ar    1  UNL1        0.0040
     14 C           3.2365   29.8692    9.5417 C.ar    1  UNL1        0.0758
     15 C           4.6734   29.4970    9.8726 C.3     1  UNL1        0.4187
     16 F           5.1906   29.5668   11.1060 F       1  UNL1       -0.1659
     17 F           4.9505   28.2099    9.4957 F       1  UNL1       -0.1659
     18 F           5.5306   30.2675    9.1233 F       1  UNL1       -0.1659
     19 C           5.2602   31.9152    4.2332 C.3     1  UNL1        0.0265
     20 C           6.3462   32.1796    3.2052 C.ar    1  UNL1       -0.0222
     21 C           6.9719   31.1387    2.5093 C.ar    1  UNL1       -0.0043
     22 C           7.9248   31.4153    1.5175 C.ar    1  UNL1       -0.0003
     23 C           8.2730   32.7305    1.2118 C.ar    1  UNL1       -0.0000
     24 C           7.6689   33.7709    1.8958 C.ar    1  UNL1       -0.0003
     25 C           6.7081   33.4862    2.8614 C.ar    1  UNL1       -0.0043
@<TRIPOS>BOND
     1     1     2    2
     2     2     9    1
     3     2     3   am
     4     9    10   ar
     5     9    14   ar
     6    10    11   ar
     7    11    12   ar
     8    12    13   ar
     9    13    14   ar
    10    14    15    1
    11    15    16    1
    12    15    17    1
    13    15    18    1
    14     3     4    1
    15     3     8    1
    16     4     5    1
    17     5     6    1
    18     6    19    1
    19     6     7    1
    20    19    20    1
    21    20    21   ar
    22    20    25   ar
    23    21    22   ar
    24    22    23   ar
    25    23    24   ar
    26    24    25   ar
    27     7     8    1
#	Name:			CHEMBL1909065
#	Creating user name:	trannguyen
#	Creation time:		Tue Feb  8 18:26:14 2022


#	Modifying user name:	trannguyen
#	Modification time:	Tue Feb  8 18:26:14 2022

@<TRIPOS>MOLECULE
CHEMBL1909065
 68 74 0 0 0
SMALL
GASTEIGER

@<TRIPOS>ATOM
      1 C          11.6496   37.9257    8.8211 C.3     1  UNL1        0.1200
      2 C          11.0276   39.0033    7.8976 C.3     1  UNL1        0.0322
      3 C          11.8085   38.5006   10.2321 C.3     1  UNL1        0.0323
      4 C          10.4595   38.2831   10.8943 C.3     1  UNL1        0.0345
      5 C           9.7125   37.3293    9.9642 C.3     1  UNL1        0.1399
      6 O          10.6743   36.8718    8.9916 O.3     1  UNL1       -0.3562
      7 C           8.9517   36.1561   10.6263 C.3     1  UNL1        0.1200
      8 C           7.7938   36.6413   11.5055 C.3     1  UNL1        0.0322
      9 C           9.9239   35.2805   11.4209 C.3     1  UNL1        0.0347
     10 C           9.3030   33.9065   11.3212 C.3     1  UNL1        0.0588
     11 C           8.6507   33.9084    9.9374 C.3     1  UNL1        0.1892
     12 C           9.5741   33.3125    8.8862 C.3     1  UNL1        0.0855
     13 C           8.9716   33.5293    7.5120 C.3     1  UNL1        0.1177
     14 O           9.3468   34.8479    7.0686 O.3     1  UNL1       -0.3842
     15 C           7.4330   33.4229    7.4423 C.3     1  UNL1        0.0544
     16 C           7.0293   32.7069    6.1485 C.3     1  UNL1        0.0050
     17 C           6.6785   33.0647    8.7755 C.3     1  UNL1        0.1222
     18 O           7.4784   33.0911    9.9691 O.3     1  UNL1       -0.3365
     19 O           8.3777   35.2909    9.6165 O.3     1  UNL1       -0.3366
     20 H           8.9673   35.4663    7.7269 H       1  UNL1        0.2103
     21 C           5.7142   31.8121    8.8172 C.3     1  UNL1        0.0572
     22 C           6.5069   30.5043    9.0238 C.3     1  UNL1        0.0051
     23 C           4.5464   31.8978    9.9134 C.3     1  UNL1        0.1493
     24 O           4.0807   30.5623   10.2294 O.3     1  UNL1       -0.3337
     25 C           2.6977   30.2381   10.0390 C.3     1  UNL1        0.1965
     26 O           1.8653   30.8648   11.0083 O.3     1  UNL1       -0.3631
     27 C           2.2741   30.7653    8.6466 C.3     1  UNL1        0.0815
     28 C           0.8725   30.2948    8.2019 C.3     1  UNL1        0.0076
     29 C           2.3188   32.3162    8.6470 C.3     1  UNL1        0.1493
     30 C           3.4168   32.9086    9.5703 C.3     1  UNL1        0.1695
     31 H           1.9689   30.4111   11.8647 H       1  UNL1        0.2128
     32 O           2.4817   32.7588    7.2810 O.3     1  UNL1       -0.3508
     33 C           3.1537   31.8356    6.4242 C.3     1  UNL1        0.1741
     34 O           2.8283   33.4423   10.7822 O.3     1  UNL1       -0.3486
     35 C           2.1369   34.6758   10.5783 C.3     1  UNL1        0.1742
     36 C           2.5593   28.7186   10.1434 C.3     1  UNL1        0.1651
     37 C           1.6673   28.3074   11.3318 C.2     1  UNL1        0.3188
     38 O           2.0329   27.9864   12.4385 O.2     1  UNL1       -0.2501
     39 O           0.3404   28.2660   10.9332 O.3     1  UNL1       -0.4801
     40 H          -0.0901   27.9058   11.7383 H       1  UNL1        0.2951
     41 C          14.1599   37.0644    9.1434 C.3     1  UNL1        0.1496
     42 C          13.8671   35.6355    9.5343 C.3     1  UNL1        0.0643
     43 C          13.2604   35.0491    8.2792 C.3     1  UNL1        0.1449
     44 O          12.8076   36.1616    7.4647 O.3     1  UNL1       -0.3513
     45 C          12.9886   37.4021    8.2108 C.3     1  UNL1        0.1669
     46 C          14.2555   34.0990    7.5362 C.3     1  UNL1        0.1445
     47 O          14.0151   32.7886    8.0512 O.3     1  UNL1       -0.3345
     48 C          14.0206   31.7039    7.1434 C.3     1  UNL1        0.1835
     49 C          13.5635   30.4850    7.9518 C.3     1  UNL1        0.0610
     50 O          15.3502   31.4540    6.7240 O.3     1  UNL1       -0.3635
     51 C          13.0799   31.9552    5.9445 C.3     1  UNL1        0.0514
     52 C          13.2117   30.9080    4.8346 C.3     1  UNL1        0.0050
     53 C          13.2130   33.3562    5.3291 C.3     1  UNL1        0.0073
     54 C          14.2494   34.2455    5.9952 C.3     1  UNL1        0.0299
     55 C          15.6377   34.1280    5.3515 C.3     1  UNL1        0.0026
     56 H          15.8362   31.2113    7.5288 H       1  UNL1        0.2128
     57 O          14.3940   37.8888   10.2611 O.3     1  UNL1       -0.3303
     58 C          15.6201   38.6679   13.3650 C.3     1  UNL1        0.1498
     59 C          14.6371   37.7899   12.6024 C.3     1  UNL1        0.0934
     60 C          15.2005   37.2772   11.2828 C.3     1  UNL1        0.2377
     61 O          16.5902   37.5676   11.1127 O.3     1  UNL1       -0.3304
     62 C          17.4015   37.2184   12.2428 C.3     1  UNL1        0.1472
     63 C          18.8577   37.5772   11.9323 C.3     1  UNL1        0.0348
     64 C          16.9422   37.8969   13.5658 C.3     1  UNL1        0.1694
     65 C          16.3288   40.9877   13.7686 C.3     1  UNL1        0.1741
     66 O          15.7547   40.0209   12.9056 O.3     1  UNL1       -0.3508
     67 O          16.7918   36.7884   14.4874 O.3     1  UNL1       -0.3486
     68 C          17.1665   35.5128   13.9896 C.3     1  UNL1        0.1742
@<TRIPOS>BOND
     1    65    66    1
     2    66    58    1
     3    58    59    1
     4    58    64    1
     5    59    60    1
     6    60    61    1
     7    60    57    1
     8    57    41    1
     9    41    42    1
    10    41    45    1
    11    42    43    1
    12    43    46    1
    13    43    44    1
    14    46    47    1
    15    46    54    1
    16    47    48    1
    17    48    49    1
    18    48    50    1
    19    48    51    1
    20    50    56    1
    21    51    52    1
    22    51    53    1
    23    53    54    1
    24    54    55    1
    25    44    45    1
    26     1     3    1
    27     1     6    1
    28     1    45    1
    29     1     2    1
    30     3     4    1
    31     4     5    1
    32     5     7    1
    33     5     6    1
    34     7     8    1
    35     7     9    1
    36     7    19    1
    37     9    10    1
    38    11    10    1
    39    11    12    1
    40    11    18    1
    41    11    19    1
    42    12    13    1
    43    13    14    1
    44    13    15    1
    45    14    20    1
    46    15    16    1
    47    15    17    1
    48    17    21    1
    49    17    18    1
    50    21    22    1
    51    23    24    1
    52    23    30    1
    53    23    21    1
    54    24    25    1
    55    25    26    1
    56    25    36    1
    57    25    27    1
    58    26    31    1
    59    36    37    1
    60    37    38    2
    61    37    39    1
    62    39    40    1
    63    27    29    1
    64    27    28    1
    65    29    32    1
    66    29    30    1
    67    32    33    1
    68    30    34    1
    69    34    35    1
    70    61    62    1
    71    62    64    1
    72    62    63    1
    73    64    67    1
    74    67    68    1
#	Name:			CHEMBL1909070
#	Creating user name:	trannguyen
#	Creation time:		Tue Feb  8 18:26:14 2022


#	Modifying user name:	trannguyen
#	Modification time:	Tue Feb  8 18:26:14 2022

@<TRIPOS>MOLECULE
CHEMBL1909070
 24 26 0 0 0
SMALL
GASTEIGER

@<TRIPOS>ATOM
      1 C           4.2515   30.4101   10.2339 C.ar    1  UNL1        0.1390
      2 C           3.9892   31.3538    9.2342 C.ar    1  UNL1        0.0366
      3 C           5.0295   31.9507    8.5084 C.ar    1  UNL1       -0.0008
      4 C           6.3629   31.6157    8.7731 C.ar    1  UNL1       -0.0182
      5 C           6.6095   30.7151    9.8235 C.ar    1  UNL1       -0.0008
      6 C           5.5715   30.1501   10.5680 C.ar    1  UNL1        0.0366
      7 C           7.4986   32.2192    7.9392 C.3     1  UNL1        0.0443
      8 C           7.9975   31.2382    6.8580 C.3     1  UNL1        0.0091
      9 C           8.8936   30.1543    7.4498 C.3     1  UNL1        0.0053
     10 C          10.1309   30.7659    8.1029 C.3     1  UNL1        0.0261
     11 C           9.8522   32.0012    8.9243 C.ar    1  UNL1       -0.0258
     12 C          10.8382   32.4565    9.8129 C.ar    1  UNL1       -0.0046
     13 C          10.6385   33.6114   10.5688 C.ar    1  UNL1       -0.0003
     14 C           9.4617   34.3404   10.4288 C.ar    1  UNL1       -0.0003
     15 C           8.4760   33.9059    9.5449 C.ar    1  UNL1       -0.0043
     16 C           8.6532   32.7309    8.7936 C.ar    1  UNL1       -0.0224
     17 O           3.1493   29.8380   10.7913 O.3     1  UNL1       -0.4720
     18 C           1.7780   28.9439    9.0464 C.3     1  UNL1        0.0553
     19 C           2.5892   28.6114   10.3102 C.3     1  UNL1        0.2210
     20 C           3.8138   27.7832    9.8670 C.3     1  UNL1        0.0553
     21 C           1.7545   27.6466   11.2062 C.2     1  UNL1        0.3503
     22 O           2.2198   26.7202   11.8571 O.2     1  UNL1       -0.2464
     23 O           0.4253   27.9164   11.2201 O.3     1  UNL1       -0.4778
     24 H           0.1686   28.5988   10.5642 H       1  UNL1        0.2952
@<TRIPOS>BOND
     1    18    19    1
     2    19    20    1
     3    19    17    1
     4    19    21    1
     5    17     1    1
     6     1     2   ar
     7     1     6   ar
     8     2     3   ar
     9     3     4   ar
    10     4     7    1
    11     4     5   ar
    12     7     8    1
    13     7    16    1
    14     8     9    1
    15     9    10    1
    16    10    11    1
    17    11    12   ar
    18    11    16   ar
    19    12    13   ar
    20    13    14   ar
    21    14    15   ar
    22    15    16   ar
    23     5     6   ar
    24    21    22    2
    25    21    23    1
    26    23    24    1
#	Name:			CHEMBL1909072
#	Creating user name:	trannguyen
#	Creation time:		Tue Feb  8 18:26:14 2022


#	Modifying user name:	trannguyen
#	Modification time:	Tue Feb  8 18:26:14 2022

@<TRIPOS>MOLECULE
CHEMBL1909072
 29 32 0 0 0
SMALL
GASTEIGER

@<TRIPOS>ATOM
      1 N           3.5158   31.5987    8.9689 N.pl3   1  UNL1       -0.2860
      2 C           4.9050   31.9409    8.9658 C.ar    1  UNL1        0.0576
      3 C           5.3756   33.1915    8.5000 C.ar    1  UNL1        0.0153
      4 C           6.7365   33.5256    8.4623 C.ar    1  UNL1        0.0013
      5 C           7.6827   32.6273    8.9202 C.ar    1  UNL1        0.0006
      6 C           7.2581   31.4079    9.4316 C.ar    1  UNL1        0.0077
      7 C           5.8899   31.0648    9.4656 C.ar    1  UNL1        0.0431
      8 S           5.5404   29.4682   10.1566 S.3     1  UNL1       -0.0844
      9 C           3.7708   29.3925   10.0847 C.ar    1  UNL1        0.0431
     10 C           3.2052   28.2035   10.5905 C.ar    1  UNL1        0.0086
     11 C           1.8317   27.9930   10.5672 C.ar    1  UNL1        0.0120
     12 C           1.0146   28.9872   10.0611 C.ar    1  UNL1        0.0589
     13 CL         -0.6902   28.7511   10.0164 Cl      1  UNL1       -0.0822
     14 C           1.5636   30.1766    9.5725 C.ar    1  UNL1        0.0267
     15 C           2.9600   30.4053    9.5343 C.ar    1  UNL1        0.0585
     16 C           2.6707   32.2690    7.9405 C.3     1  UNL1        0.0970
     17 C           3.0368   31.7882    6.5294 C.3     1  UNL1        0.0391
     18 C           3.1951   32.9489    5.5414 C.3     1  UNL1        0.0739
     19 C           6.5247   32.6504    3.8724 C.3     1  UNL1        0.0790
     20 C           5.6437   33.9047    3.8482 C.3     1  UNL1        0.0264
     21 C           4.2225   33.5790    3.3849 C.3     1  UNL1        0.0726
     22 N           3.5677   32.5339    4.1824 N.3     1  UNL1       -0.2726
     23 C           4.3833   31.3077    4.1856 C.3     1  UNL1        0.0726
     24 C           5.8280   31.5265    4.6511 C.3     1  UNL1        0.0264
     25 N           7.0375   30.8567    2.2915 N.am    1  UNL1       -0.3288
     26 C           6.9033   32.2039    2.4608 C.2     1  UNL1        0.2190
     27 O           7.0617   32.9582    1.5115 O.2     1  UNL1       -0.2753
     28 H           7.2693   30.5261    1.3637 H       1  UNL1        0.1449
     29 H           6.8599   30.1789    3.0184 H       1  UNL1        0.1449
@<TRIPOS>BOND
     1    25    26   am
     2    25    28    1
     3    25    29    1
     4    26    27    2
     5    26    19    1
     6    19    20    1
     7    19    24    1
     8    20    21    1
     9    21    22    1
    10    22    18    1
    11    22    23    1
    12    18    17    1
    13    17    16    1
    14    16     1    1
    15     1     2    1
    16     1    15    1
    17     2     3   ar
    18     2     7   ar
    19     3     4   ar
    20     4     5   ar
    21     5     6   ar
    22     6     7   ar
    23     7     8    1
    24     8     9    1
    25     9    10   ar
    26     9    15   ar
    27    10    11   ar
    28    11    12   ar
    29    12    13    1
    30    12    14   ar
    31    14    15   ar
    32    23    24    1
#	Name:			CHEMBL1909073
#	Creating user name:	trannguyen
#	Creation time:		Tue Feb  8 18:26:14 2022


#	Modifying user name:	trannguyen
#	Modification time:	Tue Feb  8 18:26:14 2022

@<TRIPOS>MOLECULE
CHEMBL1909073
 28 30 0 0 0
SMALL
GASTEIGER

@<TRIPOS>ATOM
      1 C           2.8922   32.2093    8.2629 C.3     1  UNL1        0.2157
      2 O           1.4932   32.6247    8.2675 O.3     1  UNL1       -0.3697
      3 H           1.4785   33.5223    7.8889 H       1  UNL1        0.2117
      4 C           3.3369   32.0147    6.8020 C.ar    1  UNL1        0.0159
      5 C           4.5929   32.4732    6.3588 C.ar    1  UNL1       -0.0012
      6 C           5.0351   32.2404    5.0526 C.ar    1  UNL1       -0.0002
      7 C           4.2226   31.5672    4.1474 C.ar    1  UNL1       -0.0000
      8 C           2.9625   31.1349    4.5458 C.ar    1  UNL1       -0.0002
      9 C           2.5260   31.3514    5.8582 C.ar    1  UNL1       -0.0012
     10 C           2.9930   30.9328    9.1220 C.ar    1  UNL1        0.0159
     11 C           4.2135   30.2482    9.2739 C.ar    1  UNL1       -0.0012
     12 C           4.2977   29.0599   10.0092 C.ar    1  UNL1       -0.0002
     13 C           3.1629   28.5250   10.6108 C.ar    1  UNL1       -0.0000
     14 C           1.9492   29.1879   10.4962 C.ar    1  UNL1       -0.0002
     15 C           1.8716   30.3834    9.7795 C.ar    1  UNL1       -0.0012
     16 C           3.5919   33.4546    8.8847 C.2     1  UNL1        0.3496
     17 O           3.3653   34.5937    8.5276 O.2     1  UNL1       -0.2468
     18 O           4.4368   33.1646    9.9158 O.3     1  UNL1       -0.4399
     19 C           5.5686   34.0149   10.1538 C.3     1  UNL1        0.2689
     20 C           6.8068   33.8718    9.2371 C.3     1  UNL1        0.1567
     21 N           8.0028   32.9644    9.7406 N.4     1  UNL1        0.2998
     22 C           9.2574   33.3297    8.9148 C.3     1  UNL1        0.1086
     23 C           9.2831   32.7192    7.5238 C.3     1  UNL1        0.0612
     24 C           9.0912   31.2171    7.6037 C.3     1  UNL1        0.0122
     25 C           7.7312   30.9217    8.2130 C.3     1  UNL1        0.0612
     26 C           7.6121   31.4724    9.6288 C.3     1  UNL1        0.1086
     27 C           9.7704   33.4350   11.6012 C.3     1  UNL1        0.0671
     28 C           8.2959   33.3245   11.2223 C.3     1  UNL1        0.1088
@<TRIPOS>UNITY_ATOM_ATTR
21 1
charge 1
@<TRIPOS>BOND
     1    27    28    1
     2    28    21    1
     3    21    20    1
     4    21    22    1
     5    21    26    1
     6    20    19    1
     7    19    18    1
     8    18    16    1
     9    16    17    2
    10    16     1    1
    11     1     2    1
    12     1     4    1
    13     1    10    1
    14     2     3    1
    15     4     5   ar
    16     4     9   ar
    17     5     6   ar
    18     6     7   ar
    19     7     8   ar
    20     8     9   ar
    21    10    11   ar
    22    10    15   ar
    23    11    12   ar
    24    12    13   ar
    25    13    14   ar
    26    14    15   ar
    27    22    23    1
    28    23    24    1
    29    24    25    1
    30    25    26    1
#	Name:			CHEMBL1909076
#	Creating user name:	trannguyen
#	Creation time:		Tue Feb  8 18:26:14 2022


#	Modifying user name:	trannguyen
#	Modification time:	Tue Feb  8 18:26:14 2022

@<TRIPOS>MOLECULE
CHEMBL1909076
 21 21 0 0 0
SMALL
GASTEIGER

@<TRIPOS>ATOM
      1 C1          4.8680   31.1576    9.1949 C.2     1  <1>         0.1080
      2 S1          6.2092   30.8255   10.1247 S.2     1  <1>        -0.0281
      3 N1          4.8419   31.8024    7.9882 N.am    1  <1>        -0.3189
      4 H1          5.1902   31.2767    7.1963 H       1  <1>         0.1480
      5 C2          4.0767   33.0016    7.6834 C.3     1  <1>         0.1150
      6 C3          3.3700   32.8347    6.3606 C.ar    1  <1>        -0.0026
      7 C4          3.0763   33.9575    5.5723 C.ar    1  <1>        -0.0026
      8 C5          2.4079   33.8152    4.3554 C.ar    1  <1>        -0.0003
      9 C6          2.0173   32.5517    3.9179 C.ar    1  <1>        -0.0000
     10 C7          2.2894   31.4301    4.6993 C.ar    1  <1>        -0.0003
     11 C8          2.9587   31.5695    5.9175 C.ar    1  <1>        -0.0026
     12 S2          3.2390   30.6952    9.6648 S.3     1  <1>        -0.0905
     13 C9          3.5823   28.9674   10.1866 C.3     1  <1>         0.0907
     14 N2          2.7209   26.6065    9.7890 N.3     1  <1>        -0.3127
     15 C10         2.3594   28.0443   10.0307 C.3     1  <1>         0.1622
     16 H2          3.5880   26.3956   10.2952 H       1  <1>         0.1193
     17 H3          3.0112   26.5413    8.8049 H       1  <1>         0.1193
     18 C11         1.5205   28.1158   11.3124 C.2     1  <1>         0.3288
     19 O1          1.9743   28.0636   12.4583 O.2     1  <1>        -0.2488
     20 O2          0.1965   28.2361   11.0487 O.3     1  <1>        -0.4792
     21 H4          0.1258   28.3447   10.0654 H       1  <1>         0.2951
@<TRIPOS>BOND
     1    14    16    1
     2    14    17    1
     3    15    13    1
     4    15    18    1
     5    15    14    1
     6    13    12    1
     7    12     1    1
     8     1     2    2
     9     1     3    1
    10     3     5    1
    11     3     4    1
    12     5     6    1
    13     6     7   ar
    14     6    11   ar
    15     7     8   ar
    16     8     9   ar
    17     9    10   ar
    18    10    11   ar
    19    18    19    2
    20    18    20    1
    21    20    21    1
#	Name:			CHEMBL190
#	Creating user name:	trannguyen
#	Creation time:		Tue Feb  8 18:26:14 2022


#	Modifying user name:	trannguyen
#	Modification time:	Tue Feb  8 18:26:14 2022

@<TRIPOS>MOLECULE
CHEMBL190
 14 15 0 0 0
SMALL
GASTEIGER

@<TRIPOS>ATOM
      1 C           0.2127   28.6817   10.3026 C.3     1  UNL1        0.1383
      2 N           1.4500   29.3482    9.9468 N.ar    1  UNL1       -0.2454
      3 C           2.6157   28.9600   10.6313 C.ar    1  UNL1        0.2850
      4 O           2.6465   28.0954   11.5029 O.2     1  UNL1       -0.2651
      5 C           3.7913   29.6873   10.2045 C.ar    1  UNL1        0.1712
      6 N           5.0884   29.5758   10.6476 N.ar    1  UNL1       -0.2177
      7 C           5.7642   30.4564    9.9412 C.ar    1  UNL1        0.1763
      8 N           4.9572   31.1306    9.0617 N.ar    1  UNL1       -0.3214
      9 H           5.2575   31.8499    8.4201 H       1  UNL1        0.1689
     10 C           3.6949   30.6409    9.2277 C.ar    1  UNL1        0.1488
     11 N           2.5385   30.9997    8.5737 N.ar    1  UNL1       -0.2642
     12 C           2.4464   32.0144    7.5410 C.3     1  UNL1        0.1366
     13 C           1.3565   30.3294    8.9387 C.ar    1  UNL1        0.3350
     14 O           0.2813   30.5958    8.3931 O.2     1  UNL1       -0.2461
@<TRIPOS>BOND
     1     1     2    1
     2     2     3   ar
     3     2    13   ar
     4     3     4    2
     5     3     5   ar
     6     5     6   ar
     7     5    10   ar
     8     6     7   ar
     9     7     8   ar
    10     8     9    1
    11     8    10   ar
    12    10    11   ar
    13    11    12    1
    14    11    13   ar
    15    13    14    2
#	Name:			CHEMBL191
#	Creating user name:	trannguyen
#	Creation time:		Tue Feb  8 18:26:14 2022


#	Modifying user name:	trannguyen
#	Modification time:	Tue Feb  8 18:26:14 2022

@<TRIPOS>MOLECULE
CHEMBL191
 32 35 0 0 0
SMALL
GASTEIGER

@<TRIPOS>ATOM
      1 C           5.9909   30.5934    9.7365 C.ar    1  UNL1        0.0004
      2 C           6.6128   30.9512    8.5833 C.ar    1  UNL1       -0.0024
      3 C           7.5766   32.0056    8.5195 C.ar    1  UNL1       -0.0003
      4 C           8.0345   32.7440    9.6384 C.ar    1  UNL1        0.0001
      5 C           7.5382   32.3110   10.7833 C.ar    1  UNL1       -0.0003
      6 C           6.6589   31.2221   10.7944 C.ar    1  UNL1       -0.0024
      7 C           9.1090   33.7617    9.6448 C.ar    1  UNL1        0.0030
      8 C           8.6918   35.1308    9.6921 C.ar    1  UNL1        0.0001
      9 C           9.5938   36.1864    9.7258 C.ar    1  UNL1        0.0000
     10 C          10.9389   35.9156    9.6907 C.ar    1  UNL1        0.0001
     11 C          11.3863   34.5925    9.6382 C.ar    1  UNL1        0.0031
     12 C          10.4911   33.4969    9.6171 C.ar    1  UNL1        0.0371
     13 C          11.0649   32.1463    9.6086 C.ar    1  UNL1        0.1806
     14 N          10.8887   31.1564    8.7524 N.ar    1  UNL1       -0.1084
     15 N          11.6209   30.0903    9.2216 N.ar    1  UNL1       -0.0229
     16 N          12.2471   30.4048   10.3445 N.ar    1  UNL1       -0.0464
     17 N          11.8936   31.6705   10.5893 N.ar    1  UNL1       -0.2388
     18 H          12.2272   32.1317   11.4250 H       1  UNL1        0.1923
     19 C           4.9188   29.4744    9.8586 C.3     1  UNL1        0.1337
     20 C           2.7000   30.8173    9.3567 C.ar    1  UNL1        0.1214
     21 N           1.4010   30.6581    9.5273 N.ar    1  UNL1       -0.2198
     22 C           1.2040   29.3733    9.9309 C.ar    1  UNL1        0.1536
     23 CL         -0.3809   28.7832   10.1867 Cl      1  UNL1       -0.0600
     24 C           2.4071   28.6908   10.0351 C.ar    1  UNL1        0.0967
     25 N           3.4091   29.6589    9.7748 N.ar    1  UNL1       -0.3113
     26 C           2.6473   27.2456   10.2990 C.3     1  UNL1        0.1834
     27 O           2.2287   26.9226   11.6238 O.3     1  UNL1       -0.3760
     28 H           2.9470   27.1703   12.2335 H       1  UNL1        0.2110
     29 C           3.2191   32.0234    8.6069 C.3     1  UNL1        0.0640
     30 C           3.3397   31.8490    7.0558 C.3     1  UNL1        0.0079
     31 C           1.8907   32.0256    4.9749 C.3     1  UNL1        0.0000
     32 C           2.1000   31.3613    6.3662 C.3     1  UNL1        0.0005
@<TRIPOS>BOND
     1    31    32    1
     2    32    30    1
     3    30    29    1
     4    29    20    1
     5    20    21   ar
     6    20    25   ar
     7    21    22   ar
     8    22    23    1
     9    22    24   ar
    10    24    26    1
    11    24    25   ar
    12    26    27    1
    13    27    28    1
    14    25    19    1
    15    19     1    1
    16     1     2   ar
    17     1     6   ar
    18     2     3   ar
    19     3     4   ar
    20     4     7    1
    21     4     5   ar
    22     7     8   ar
    23     7    12   ar
    24     8     9   ar
    25     9    10   ar
    26    10    11   ar
    27    11    12   ar
    28    12    13    1
    29    13    14   ar
    30    13    17   ar
    31    14    15   ar
    32    15    16   ar
    33    16    17   ar
    34    17    18    1
    35     5     6   ar
#	Name:			CHEMBL19215
#	Creating user name:	trannguyen
#	Creation time:		Tue Feb  8 18:26:14 2022


#	Modifying user name:	trannguyen
#	Modification time:	Tue Feb  8 18:26:14 2022

@<TRIPOS>MOLECULE
CHEMBL19215
 31 35 0 0 0
SMALL
GASTEIGER

@<TRIPOS>ATOM
      1 C           8.7788   35.8052    8.9828 C.3     1  UNL1        0.0896
      2 N           8.6686   35.5286   10.4078 N.3     1  UNL1       -0.2721
      3 C           7.3040   35.6175   10.9286 C.3     1  UNL1        0.0738
      4 C           6.4264   34.3609   10.7880 C.3     1  UNL1        0.0361
      5 C           7.1603   33.1319   11.3375 C.3     1  UNL1        0.0088
      6 C           8.5921   32.9592   10.8128 C.3     1  UNL1        0.0374
      7 C           8.7549   32.2771    9.4672 C.ar    1  UNL1       -0.0200
      8 C           7.9163   31.3046    8.9059 C.ar    1  UNL1       -0.0041
      9 C           8.2204   30.7138    7.6705 C.ar    1  UNL1        0.0012
     10 C           9.3937   31.0291    6.9676 C.ar    1  UNL1        0.0172
     11 C          10.2586   31.9537    7.5618 C.ar    1  UNL1        0.0594
     12 C           9.9390   32.5524    8.7678 C.ar    1  UNL1        0.0094
     13 C          10.9744   33.4380    9.1364 C.ar    1  UNL1       -0.0025
     14 C          11.9321   33.3661    8.1521 C.ar    1  UNL1        0.0716
     15 N          11.4946   32.4583    7.2103 N.ar    1  UNL1       -0.3243
     16 C          12.2477   32.0690    6.0403 C.3     1  UNL1        0.1305
     17 C          10.8767   34.2168   10.4048 C.3     1  UNL1        0.0442
     18 C           9.3913   34.3306   10.9108 C.3     1  UNL1        0.0659
     19 C           5.8734   34.1905    9.3655 C.3     1  UNL1        0.0940
     20 N           5.0226   33.0424    9.1464 N.am    1  UNL1       -0.2706
     21 C           4.4693   32.6728    7.9670 C.2     1  UNL1        0.4020
     22 O           4.4743   33.3331    6.9309 O.2     1  UNL1       -0.2264
     23 H           4.8488   32.4099    9.9173 H       1  UNL1        0.1527
     24 O           3.8550   31.4828    8.1431 O.3     1  UNL1       -0.4297
     25 C           4.2326   30.7647    9.3190 C.3     1  UNL1        0.2367
     26 C           3.0537   29.9232    9.7419 C.ar    1  UNL1        0.0213
     27 C           3.2072   28.7976   10.5639 C.ar    1  UNL1       -0.0007
     28 C           2.0918   28.0420   10.9372 C.ar    1  UNL1       -0.0002
     29 C           0.8193   28.4075   10.4990 C.ar    1  UNL1       -0.0000
     30 C           0.6559   29.5393    9.7044 C.ar    1  UNL1       -0.0002
     31 C           1.7649   30.2995    9.3395 C.ar    1  UNL1       -0.0007
@<TRIPOS>BOND
     1     1     2    1
     2     2     3    1
     3     2    18    1
     4     3     4    1
     5     4     5    1
     6     4    19    1
     7    19    20    1
     8    20    21   am
     9    20    23    1
    10    21    22    2
    11    21    24    1
    12    24    25    1
    13    25    26    1
    14    26    27   ar
    15    26    31   ar
    16    27    28   ar
    17    28    29   ar
    18    29    30   ar
    19    30    31   ar
    20     5     6    1
    21     6     7    1
    22     6    18    1
    23     7     8   ar
    24     7    12   ar
    25     8     9   ar
    26     9    10   ar
    27    10    11   ar
    28    11    12   ar
    29    11    15   ar
    30    12    13   ar
    31    13    14   ar
    32    13    17    1
    33    14    15   ar
    34    15    16    1
    35    17    18    1
#	Name:			CHEMBL19224
#	Creating user name:	trannguyen
#	Creation time:		Tue Feb  8 18:26:14 2022


#	Modifying user name:	trannguyen
#	Modification time:	Tue Feb  8 18:26:14 2022

@<TRIPOS>MOLECULE
CHEMBL19224
 25 27 0 0 0
SMALL
GASTEIGER

@<TRIPOS>ATOM
      1 C           2.5055   33.0558    9.3539 C.ar    1  UNL1        0.0635
      2 N           1.6350   32.3349   10.1045 N.ar    1  UNL1       -0.2478
      3 C           1.0912   31.2278    9.5411 C.ar    1  UNL1        0.0985
      4 C           1.3345   30.8490    8.2407 C.ar    1  UNL1        0.0208
      5 C           2.2098   31.5670    7.4483 C.ar    1  UNL1        0.0059
      6 C           2.4656   31.2578    6.1015 C.ar    1  UNL1        0.0401
      7 C           3.3185   31.9883    5.2502 C.ar    1  UNL1        0.1724
      8 C           4.0976   32.9830    5.8413 C.ar    1  UNL1        0.1724
      9 C           3.9380   33.1739    7.2335 C.ar    1  UNL1        0.0412
     10 C           2.9089   32.6616    8.0410 C.ar    1  UNL1        0.0171
     11 O           3.3717   31.4614    3.9896 O.3     1  UNL1       -0.4684
     12 C           2.3279   31.7603    3.0872 C.3     1  UNL1        0.2526
     13 O           5.1279   33.7357    5.3513 O.3     1  UNL1       -0.4684
     14 C           6.4742   33.2915    5.4199 C.3     1  UNL1        0.2526
     15 C           2.9945   34.3386   10.0433 C.3     1  UNL1        0.0721
     16 C           0.9228   38.1491    9.4280 C.ar    1  UNL1        0.1724
     17 C           0.3566   37.1560   10.2514 C.ar    1  UNL1        0.0397
     18 C           0.9923   35.9109   10.4772 C.ar    1  UNL1       -0.0006
     19 C           2.1875   35.6171    9.8338 C.ar    1  UNL1       -0.0130
     20 C           2.6887   36.6361    9.0275 C.ar    1  UNL1        0.0362
     21 C           2.1525   37.9032    8.8624 C.ar    1  UNL1        0.1721
     22 C           0.0972   40.0910   10.5006 C.3     1  UNL1        0.2526
     23 O           0.2256   39.3218    9.3006 O.3     1  UNL1       -0.4684
     24 O           2.8164   38.8764    8.1669 O.3     1  UNL1       -0.4684
     25 C           2.7642   38.7953    6.7529 C.3     1  UNL1        0.2526
@<TRIPOS>BOND
     1    22    23    1
     2    23    16    1
     3    16    17   ar
     4    16    21   ar
     5    17    18   ar
     6    18    19   ar
     7    19    15    1
     8    19    20   ar
     9    15     1    1
    10     1     2   ar
    11     1    10   ar
    12     2     3   ar
    13     3     4   ar
    14     4     5   ar
    15     5     6   ar
    16     5    10   ar
    17     6     7   ar
    18     7    11    1
    19     7     8   ar
    20    11    12    1
    21     8    13    1
    22     8     9   ar
    23    13    14    1
    24     9    10   ar
    25    20    21   ar
    26    21    24    1
    27    24    25    1
#	Name:			CHEMBL19236
#	Creating user name:	trannguyen
#	Creation time:		Tue Feb  8 18:26:14 2022


#	Modifying user name:	trannguyen
#	Modification time:	Tue Feb  8 18:26:14 2022

@<TRIPOS>MOLECULE
CHEMBL19236
 18 19 0 0 0
SMALL
GASTEIGER

@<TRIPOS>ATOM
      1 C           2.5890   31.2218    8.4300 C.ar    1  UNL1        0.2582
      2 N           2.9553   30.1687    9.1907 N.ar    1  UNL1       -0.1944
      3 C           4.2259   30.1338    9.5987 C.ar    1  UNL1        0.1438
      4 C           4.6502   28.9958   10.4705 C.3     1  UNL1        0.0738
      5 N           5.1508   31.0181    9.2270 N.ar    1  UNL1       -0.2163
      6 C           4.7326   32.0475    8.4503 C.ar    1  UNL1        0.1727
      7 CL          6.1047   32.8919    7.8263 Cl      1  UNL1       -0.0583
      8 C           3.4229   32.2720    8.0462 C.ar    1  UNL1        0.1908
      9 C           0.3384   30.9024    9.0115 C.3     1  UNL1        0.2543
     10 O           1.2712   31.2590    7.9842 O.3     1  UNL1       -0.4543
     11 N           2.9204   33.3547    7.2868 N.pl3   1  UNL1       -0.1993
     12 H           3.0637   34.2400    7.7666 H       1  UNL1        0.2514
     13 C           2.9428   33.4651    5.9328 C.cat   1  UNL1        0.3711
     14 N           3.8540   33.9957    5.1602 N.2     1  UNL1       -0.0977
     15 C           3.3660   33.7756    3.7755 C.3     1  UNL1        0.2596
     16 C           2.1918   32.8051    3.8943 C.3     1  UNL1        0.2107
     17 N           1.8499   32.9457    5.2974 N.pl3   1  UNL1       -0.2215
     18 H           1.4384   32.1245    5.7239 H       1  UNL1        0.2454
@<TRIPOS>BOND
     1     9    10    1
     2    10     1    1
     3     1     2   ar
     4     1     8   ar
     5     2     3   ar
     6     3     4    1
     7     3     5   ar
     8     5     6   ar
     9     6     7    1
    10     6     8   ar
    11     8    11    1
    12    11    13    1
    13    11    12    1
    14    13    14    2
    15    13    17    1
    16    14    15    1
    17    15    16    1
    18    16    17    1
    19    17    18    1
#	Name:			CHEMBL19299
#	Creating user name:	trannguyen
#	Creation time:		Tue Feb  8 18:26:14 2022


#	Modifying user name:	trannguyen
#	Modification time:	Tue Feb  8 18:26:14 2022

@<TRIPOS>MOLECULE
CHEMBL19299
 19 20 0 0 0
SMALL
GASTEIGER

@<TRIPOS>ATOM
      1 C           3.2780   29.2584    9.8061 C.ar    1  UNL1       -0.0120
      2 C           4.6123   29.0047   10.1565 C.ar    1  UNL1       -0.0041
      3 C           5.5898   29.9980   10.0197 C.ar    1  UNL1       -0.0046
      4 C           5.2588   31.2626    9.5192 C.ar    1  UNL1       -0.0218
      5 C           3.9239   31.5177    9.1782 C.ar    1  UNL1       -0.0046
      6 C           2.9460   30.5283    9.3149 C.ar    1  UNL1       -0.0041
      7 C           2.8606   26.7768    9.7256 C.3     1  UNL1        0.0164
      8 C           2.2298   28.1601    9.9242 C.3     1  UNL1        0.1211
      9 C           1.4346   28.1888   11.2360 C.2     1  UNL1        0.3174
     10 O           1.9471   28.0987   12.3431 O.2     1  UNL1       -0.2499
     11 O           0.0856   28.2449   11.0873 O.3     1  UNL1       -0.4800
     12 H          -0.2167   28.3188   10.1630 H       1  UNL1        0.2951
     13 C           6.2962   32.3578    9.4024 C.3     1  UNL1        0.0337
     14 C           7.6510   32.0459   10.0429 C.3     1  UNL1        0.0620
     15 C           8.8529   32.6815    9.3329 C.3     1  UNL1        0.0081
     16 C           9.8712   32.9320   10.4400 C.3     1  UNL1        0.0082
     17 C           9.0396   33.4409   11.6069 C.3     1  UNL1        0.0645
     18 C           7.7583   32.6691   11.4235 C.2     1  UNL1        0.1506
     19 O           6.8983   32.5725   12.2905 O.2     1  UNL1       -0.2961
@<TRIPOS>BOND
     1     7     8    1
     2     8     9    1
     3     8     1    1
     4     9    10    2
     5     9    11    1
     6    11    12    1
     7     1     2   ar
     8     1     6   ar
     9     2     3   ar
    10     3     4   ar
    11     4    13    1
    12     4     5   ar
    13    13    14    1
    14    14    15    1
    15    14    18    1
    16    15    16    1
    17    16    17    1
    18    17    18    1
    19    18    19    2
    20     5     6   ar
#	Name:			CHEMBL192
#	Creating user name:	trannguyen
#	Creation time:		Tue Feb  8 18:26:14 2022


#	Modifying user name:	trannguyen
#	Modification time:	Tue Feb  8 18:26:14 2022

@<TRIPOS>MOLECULE
CHEMBL192
 34 37 0 0 0
SMALL
GASTEIGER

@<TRIPOS>ATOM
      1 C           5.8871   32.8896    5.3469 C.ar    1  UNL1        0.0693
      2 C           6.8251   32.4751    4.3726 C.ar    1  UNL1        0.0259
      3 C           6.5348   32.5728    2.9996 C.ar    1  UNL1        0.1225
      4 C           5.3431   33.1243    2.5625 C.ar    1  UNL1        0.0230
      5 C           4.4098   33.5374    3.5065 C.ar    1  UNL1        0.0384
      6 C           4.6306   33.3872    4.8950 C.ar    1  UNL1        0.1414
      7 C           6.0574   30.9634    9.9800 C.ar    1  UNL1        0.0978
      8 N           6.6865   31.3949   11.0932 N.ar    1  UNL1       -0.1719
      9 N           7.3793   32.4795   10.6819 N.ar    1  UNL1       -0.2430
     10 C           8.1940   33.2064   11.6314 C.3     1  UNL1        0.1539
     11 C           7.1853   32.7642    9.3673 C.ar    1  UNL1        0.1524
     12 C           7.6915   33.8079    8.5562 C.ar    1  UNL1        0.2776
     13 O           8.4757   34.6752    8.9218 O.2     1  UNL1       -0.2655
     14 N           7.1887   33.7461    7.2763 N.ar    1  UNL1       -0.3051
     15 H           7.5072   34.4735    6.6470 H       1  UNL1        0.1704
     16 C           6.3108   32.7709    6.8085 C.ar    1  UNL1        0.1458
     17 N           5.8680   31.7900    7.5602 N.ar    1  UNL1       -0.2254
     18 C           6.3315   31.8136    8.8875 C.ar    1  UNL1        0.1199
     19 C           5.2145   29.7344   10.0431 C.3     1  UNL1        0.0492
     20 C           2.7907   29.0219   10.4088 C.3     1  UNL1        0.0004
     21 C           3.7402   29.9908    9.7138 C.3     1  UNL1        0.0064
     22 S           7.6834   31.9406    1.7961 S.O2    1  UNL1        0.0634
     23 O           9.0248   32.1341    2.2934 O.2     1  UNL1       -0.1528
     24 O           7.2020   30.6320    1.4139 O.2     1  UNL1       -0.1528
     25 N           7.4164   33.0281    0.5190 N.3     1  UNL1       -0.1527
     26 C           7.9028   34.4227    0.7002 C.3     1  UNL1        0.1131
     27 C           9.3958   34.5604    0.3422 C.3     1  UNL1        0.0915
     28 N           9.7200   34.0638   -1.0097 N.3     1  UNL1       -0.2690
     29 C          11.1731   34.0673   -1.2026 C.3     1  UNL1        0.0897
     30 C           9.1923   32.6985   -1.2212 C.3     1  UNL1        0.0915
     31 C           7.7084   32.5334   -0.8506 C.3     1  UNL1        0.1131
     32 O           3.6382   33.6934    5.8128 O.3     1  UNL1       -0.4754
     33 C           2.4135   32.9425    5.6813 C.3     1  UNL1        0.2055
     34 C           2.5461   31.5399    6.2481 C.3     1  UNL1        0.0512
@<TRIPOS>BOND
     1    20    21    1
     2    21    19    1
     3    19     7    1
     4     7     8   ar
     5     7    18   ar
     6     8     9   ar
     7     9    10    1
     8     9    11   ar
     9    11    12   ar
    10    11    18   ar
    11    12    13    2
    12    12    14   ar
    13    14    15    1
    14    14    16   ar
    15    16     1    1
    16    16    17   ar
    17     1     2   ar
    18     1     6   ar
    19     2     3   ar
    20     3    22    1
    21     3     4   ar
    22    22    23    2
    23    22    24    2
    24    22    25    1
    25    25    26    1
    26    25    31    1
    27    26    27    1
    28    27    28    1
    29    28    29    1
    30    28    30    1
    31    30    31    1
    32     4     5   ar
    33     5     6   ar
    34     6    32    1
    35    32    33    1
    36    33    34    1
    37    17    18   ar
#	Name:			CHEMBL193482
#	Creating user name:	trannguyen
#	Creation time:		Tue Feb  8 18:26:14 2022


#	Modifying user name:	trannguyen
#	Modification time:	Tue Feb  8 18:26:14 2022

@<TRIPOS>MOLECULE
CHEMBL193482
 24 27 0 0 0
SMALL
GASTEIGER

@<TRIPOS>ATOM
      1 C           8.0160   34.6146    8.5047 C.3     1  UNL1        0.0025
      2 C           7.1177   33.6878    9.3986 C.3     1  UNL1        0.0272
      3 C           5.7362   34.0059    8.8890 C.3     1  UNL1        0.0027
      4 C           4.7241   33.0290    9.3560 C.3     1  UNL1        0.0044
      5 C           5.0764   31.6458    8.7971 C.3     1  UNL1        0.0220
      6 C           3.8276   30.8053    9.0979 C.ar    1  UNL1       -0.0263
      7 C           2.5594   31.2821    8.6309 C.ar    1  UNL1       -0.0015
      8 C           1.3704   30.7222    9.1292 C.ar    1  UNL1        0.0363
      9 C           1.4368   29.6898    9.9960 C.ar    1  UNL1        0.1333
     10 O           0.2974   29.1254   10.5337 O.3     1  UNL1       -0.5055
     11 C           2.6686   29.1342   10.3981 C.ar    1  UNL1        0.0320
     12 C           3.8772   29.7141    9.9272 C.ar    1  UNL1       -0.0231
     13 C           5.2075   29.1089   10.3063 C.3     1  UNL1        0.0261
     14 C           6.3091   30.1748   10.5230 C.3     1  UNL1        0.0050
     15 C           6.5070   31.1246    9.3159 C.3     1  UNL1        0.0045
     16 C           7.7030   32.2777    9.2821 C.3     1  UNL1        0.0051
     17 C           8.9932   32.5644   10.2860 C.3     1  UNL1        0.0318
     18 C           8.6190   33.7585   11.2685 C.3     1  UNL1        0.1372
     19 O           9.1545   35.0538   11.0245 O.3     1  UNL1       -0.3820
     20 C           7.1543   33.8319   10.9771 C.3     1  UNL1        0.1370
     21 O           6.6091   32.7396   11.7300 O.3     1  UNL1       -0.3820
     22 H          -0.4676   29.6312   10.1967 H       1  UNL1        0.2922
     23 H           8.6141   35.6770   11.5594 H       1  UNL1        0.2104
     24 H           7.2938   32.0440   11.8290 H       1  UNL1        0.2104
@<TRIPOS>BOND
     1     2     3    1
     2     2    16    1
     3     2    20    1
     4     2     1    1
     5     3     4    1
     6     4     5    1
     7     5     6    1
     8     5    15    1
     9     6     7   ar
    10     6    12   ar
    11     7     8   ar
    12     8     9   ar
    13     9    11   ar
    14     9    10    1
    15    10    22    1
    16    11    12   ar
    17    12    13    1
    18    13    14    1
    19    14    15    1
    20    15    16    1
    21    16    17    1
    22    17    18    1
    23    18    20    1
    24    18    19    1
    25    19    23    1
    26    20    21    1
    27    21    24    1
#	Name:			CHEMBL193
#	Creating user name:	trannguyen
#	Creation time:		Tue Feb  8 18:26:14 2022


#	Modifying user name:	trannguyen
#	Modification time:	Tue Feb  8 18:26:14 2022

@<TRIPOS>MOLECULE
CHEMBL193
 26 27 0 0 0
SMALL
GASTEIGER

@<TRIPOS>ATOM
      1 C           5.1244   32.3846    7.4518 C.2     1  UNL1        0.0707
      2 C           6.3276   32.3788    6.8179 C.2     1  UNL1        0.0283
      3 C           6.6240   32.5146    5.3345 C.3     1  UNL1        0.0470
      4 N           7.4890   32.2928    7.5681 N.pl3   1  UNL1       -0.3192
      5 C           7.5706   32.4688    8.9354 C.2     1  UNL1        0.0283
      6 C           8.9773   32.6641    9.4597 C.3     1  UNL1        0.0470
      7 C           6.4396   32.4972    9.6834 C.2     1  UNL1        0.0707
      8 C           5.0630   32.3073    9.0026 C.3     1  UNL1        0.0827
      9 H           8.3616   32.4024    7.0529 H       1  UNL1        0.1516
     10 C           4.2564   31.0979    9.5468 C.ar    1  UNL1        0.0046
     11 C           4.9312   29.8586    9.6741 C.ar    1  UNL1       -0.0021
     12 C           4.2759   28.6801   10.0718 C.ar    1  UNL1       -0.0002
     13 C           2.9254   28.6993   10.3979 C.ar    1  UNL1        0.0015
     14 C           2.2327   29.9019   10.3292 C.ar    1  UNL1        0.0196
     15 C           2.8930   31.0750    9.8993 C.ar    1  UNL1        0.0885
     16 N           2.0449   32.2432    9.8047 N.pl3   1  UNL1       -0.1856
     17 O           1.1366   32.2057    8.9653 O.2     1  UNL1       -0.1725
     18 O           2.2186   33.1284   10.6527 O.co2   1  UNL1       -0.7770
     19 C           3.8149   32.6515    6.7651 C.2     1  UNL1        0.3388
     20 O           3.3559   33.7625    6.5893 O.2     1  UNL1       -0.2452
     21 C           3.0284   31.2986    4.9493 C.3     1  UNL1        0.2559
     22 O           3.2493   31.4981    6.3469 O.3     1  UNL1       -0.4415
     23 C           6.5305   32.8403   11.1293 C.2     1  UNL1        0.3388
     24 O           7.0891   32.1736   11.9879 O.2     1  UNL1       -0.2452
     25 O           5.9823   34.0633   11.3628 O.3     1  UNL1       -0.4415
     26 C           6.7932   35.1974   11.0373 C.3     1  UNL1        0.2559
@<TRIPOS>UNITY_ATOM_ATTR
18 1
charge -1
@<TRIPOS>BOND
     1    21    22    1
     2    22    19    1
     3    19    20    2
     4    19     1    1
     5     1     2    2
     6     1     8    1
     7     2     3    1
     8     2     4    1
     9     4     5    1
    10     4     9    1
    11     5     6    1
    12     5     7    2
    13     7    23    1
    14     7     8    1
    15    23    24    2
    16    23    25    1
    17    25    26    1
    18     8    10    1
    19    10    11   ar
    20    10    15   ar
    21    11    12   ar
    22    12    13   ar
    23    13    14   ar
    24    14    15   ar
    25    15    16    1
    26    16    17    2
    27    16    18    1
#	Name:			CHEMBL195437
#	Creating user name:	trannguyen
#	Creation time:		Tue Feb  8 18:26:14 2022


#	Modifying user name:	trannguyen
#	Modification time:	Tue Feb  8 18:26:14 2022

@<TRIPOS>MOLECULE
CHEMBL195437
 16 16 0 0 0
SMALL
GASTEIGER

@<TRIPOS>ATOM
      1 C           4.2166   31.2777    9.0506 C.3     1  UNL1        0.0264
      2 C           3.6536   30.0206    9.6954 C.ar    1  UNL1       -0.0220
      3 C           2.3524   29.9684   10.2187 C.ar    1  UNL1       -0.0012
      4 C           1.8407   28.7904   10.7630 C.ar    1  UNL1        0.0363
      5 C           2.6270   27.6501   10.7892 C.ar    1  UNL1        0.1337
      6 O           2.1486   26.4786   11.2903 O.3     1  UNL1       -0.5055
      7 C           3.9309   27.6784   10.2999 C.ar    1  UNL1        0.0363
      8 C           4.4404   28.8568    9.7519 C.ar    1  UNL1       -0.0012
      9 H           1.2184   26.6092   11.5357 H       1  UNL1        0.2922
     10 C           3.1861   32.3739    8.7559 C.3     1  UNL1        0.0047
     11 C           2.8171   32.5420    7.2816 C.3     1  UNL1        0.0003
     12 C           2.1736   31.3041    6.6569 C.3     1  UNL1        0.0000
     13 C           2.2068   31.3126    5.1251 C.3     1  UNL1        0.0000
     14 C           1.8878   32.6709    4.4874 C.3     1  UNL1        0.0000
     15 C           4.1311   33.7874    4.0499 C.3     1  UNL1        0.0000
     16 C           2.9556   33.0318    3.4508 C.3     1  UNL1        0.0000
@<TRIPOS>BOND
     1    15    16    1
     2    16    14    1
     3    14    13    1
     4    13    12    1
     5    12    11    1
     6    11    10    1
     7    10     1    1
     8     1     2    1
     9     2     3   ar
    10     2     8   ar
    11     3     4   ar
    12     4     5   ar
    13     5     6    1
    14     5     7   ar
    15     6     9    1
    16     7     8   ar
#	Name:			CHEMBL196
#	Creating user name:	trannguyen
#	Creation time:		Tue Feb  8 18:26:14 2022


#	Modifying user name:	trannguyen
#	Modification time:	Tue Feb  8 18:26:14 2022

@<TRIPOS>MOLECULE
CHEMBL196
 16 16 0 0 0
SMALL
GASTEIGER

@<TRIPOS>ATOM
      1 O           4.5640   27.9237   10.3116 O.2     1  UNL1       -0.2413
      2 C           3.4071   28.2809   10.1838 C.2     1  UNL1        0.3788
      3 O           3.0019   29.3596    9.4405 O.3     1  UNL1       -0.4364
      4 C           1.5790   29.5026    9.5329 C.3     1  UNL1        0.2569
      5 C           1.1776   28.4055   10.4445 C.2     1  UNL1        0.1946
      6 O          -0.1138   28.2277   10.8690 O.2     1  UNL1       -0.5039
      7 C           2.2217   27.6794   10.8229 C.2     1  UNL1        0.2442
      8 O           2.2151   26.6215   11.6839 O.2     1  UNL1       -0.4987
      9 H          -0.6300   29.0134   10.5744 H       1  UNL1        0.2920
     10 H           1.2795   26.4836   11.9258 H       1  UNL1        0.2925
     11 C           1.1884   30.9011   10.0291 C.3     1  UNL1        0.1875
     12 O           1.8979   31.1871   11.2531 O.3     1  UNL1       -0.3782
     13 H           1.6620   32.1199   11.4508 H       1  UNL1        0.2106
     14 C           1.4664   32.0295    9.0288 C.3     1  UNL1        0.1706
     15 O           0.3026   32.1857    8.2109 O.3     1  UNL1       -0.3794
     16 H           0.5276   32.8440    7.5278 H       1  UNL1        0.2105
@<TRIPOS>BOND
     1     1     2    2
     2     2     3    1
     3     2     7    1
     4     3     4    1
     5     4     5    1
     6     4    11    1
     7    11    12    1
     8    11    14    1
     9    12    13    1
    10    14    15    1
    11    15    16    1
    12     5     6    1
    13     5     7    2
    14     6     9    1
    15     7     8    1
    16     8    10    1
#	Name:			CHEMBL203266
#	Creating user name:	trannguyen
#	Creation time:		Tue Feb  8 18:26:14 2022


#	Modifying user name:	trannguyen
#	Modification time:	Tue Feb  8 18:26:14 2022

@<TRIPOS>MOLECULE
CHEMBL203266
 20 21 0 0 0
SMALL
GASTEIGER

@<TRIPOS>ATOM
      1 C           1.9172   29.6863   10.2412 C.ar    1  UNL1        0.1754
      2 C           0.8799   29.9342    9.2882 C.ar    1  UNL1        0.0400
      3 C           1.0567   30.7451    8.2107 C.ar    1  UNL1        0.0034
      4 C           2.2838   31.3960    7.9888 C.ar    1  UNL1        0.0311
      5 C           3.3364   31.2140    8.9644 C.ar    1  UNL1        0.1727
      6 C           3.2019   30.2846   10.0265 C.ar    1  UNL1        0.2058
      7 C           2.0114   27.6042   11.3685 C.3     1  UNL1        0.2526
      8 O           1.4108   28.8853   11.2145 O.3     1  UNL1       -0.4683
      9 O           4.4493   32.0449    8.8089 O.3     1  UNL1       -0.4685
     10 C           4.5516   33.3600    9.4068 C.3     1  UNL1        0.2526
     11 O           4.3899   30.0863   10.6933 O.3     1  UNL1       -0.4654
     12 C           5.3167   29.0849   10.3833 C.3     1  UNL1        0.2528
     13 C           2.4210   32.2024    6.7128 C.3     1  UNL1        0.1024
     14 N           3.4324   31.8201    5.7112 N.3     1  UNL1       -0.2664
     15 C           2.8719   31.2755    4.4781 C.3     1  UNL1        0.0897
     16 C           2.5543   32.3540    3.4054 C.3     1  UNL1        0.0862
     17 N           3.4892   33.4313    3.1103 N.3     1  UNL1       -0.2951
     18 C           4.0494   33.9259    4.3728 C.3     1  UNL1        0.0862
     19 C           4.4648   32.8005    5.3480 C.3     1  UNL1        0.0897
     20 H           2.9198   34.1920    2.7192 H       1  UNL1        0.1233
@<TRIPOS>BOND
     1     7     8    1
     2     8     1    1
     3     1     2   ar
     4     1     6   ar
     5     2     3   ar
     6     3     4   ar
     7     4    13    1
     8     4     5   ar
     9    13    14    1
    10    14    15    1
    11    14    19    1
    12    15    16    1
    13    16    17    1
    14    17    18    1
    15    17    20    1
    16    18    19    1
    17     5     9    1
    18     5     6   ar
    19     9    10    1
    20     6    11    1
    21    11    12    1
#	Name:			CHEMBL205596
#	Creating user name:	trannguyen
#	Creation time:		Tue Feb  8 18:26:14 2022


#	Modifying user name:	trannguyen
#	Modification time:	Tue Feb  8 18:26:14 2022

@<TRIPOS>MOLECULE
CHEMBL205596
 33 36 0 0 0
SMALL
GASTEIGER

@<TRIPOS>ATOM
      1 C           2.2918   31.8234    8.2822 C.3     1  UNL1        0.0023
      2 C           3.4315   32.3116    9.1917 C.3     1  UNL1        0.0001
      3 C           4.6656   31.6136    8.6541 C.3     1  UNL1        0.0002
      4 C           4.5520   31.7391    7.1283 C.3     1  UNL1        0.0046
      5 C           5.3097   32.9900    6.5978 C.3     1  UNL1        0.0271
      6 C           5.0027   33.3210    5.1110 C.3     1  UNL1        0.0047
      7 C           3.4838   33.2788    4.8180 C.3     1  UNL1        0.0293
      8 C           2.6036   33.0294    6.0497 C.3     1  UNL1        0.1104
      9 O           1.2267   32.9372    5.6518 O.3     1  UNL1       -0.3845
     10 C           2.9964   31.7472    6.8559 C.3     1  UNL1        0.0248
     11 C           2.6264   30.5019    6.0366 C.3     1  UNL1        0.0024
     12 C           5.9029   32.6349    3.9916 C.3     1  UNL1        0.0004
     13 C           5.3860   31.2285    3.5911 C.3     1  UNL1        0.0000
     14 C           5.8386   33.5492    2.7169 C.3     1  UNL1        0.0025
     15 C           7.0079   33.3405    1.7518 C.3     1  UNL1        0.0292
     16 C           8.3614   33.6149    2.4170 C.3     1  UNL1        0.1105
     17 O           8.8428   34.8989    2.0312 O.3     1  UNL1       -0.3845
     18 C           8.3006   33.5774    3.9469 C.3     1  UNL1        0.0293
     19 C           7.3979   32.4316    4.4183 C.3     1  UNL1        0.0048
     20 C           7.5855   32.0778    5.8947 C.3     1  UNL1        0.0293
     21 C           6.8278   32.9616    6.8675 C.3     1  UNL1        0.1105
     22 O           7.3658   34.2824    6.8668 O.3     1  UNL1       -0.3845
     23 H           1.1917   32.8973    4.6806 H       1  UNL1        0.2103
     24 H           9.0420   34.8621    1.0797 H       1  UNL1        0.2103
     25 H           7.0079   34.7809    6.1159 H       1  UNL1        0.2103
     26 C          -0.0072   30.8233    9.1051 C.3     1  UNL1        0.0000
     27 C           1.5093   30.6385    8.9588 C.3     1  UNL1        0.0006
     28 C           2.0867   30.0739   10.2736 C.3     1  UNL1        0.0116
     29 C           2.8161   28.7469   10.1052 C.3     1  UNL1        0.1094
     30 C           2.2753   27.7269   11.0715 C.2     1  UNL1        0.3138
     31 O           1.9803   27.9711   12.2371 O.2     1  UNL1       -0.2503
     32 O           2.1875   26.4866   10.5434 O.3     1  UNL1       -0.4802
     33 H           2.4513   26.4613    9.6009 H       1  UNL1        0.2951
@<TRIPOS>BOND
     1    27    28    1
     2    27     1    1
     3    27    26    1
     4    28    29    1
     5    29    30    1
     6    30    31    2
     7    30    32    1
     8    32    33    1
     9     1     2    1
    10     1    10    1
    11     2     3    1
    12     3     4    1
    13     4     5    1
    14     4    10    1
    15     5     6    1
    16     5    21    1
    17     6     7    1
    18     6    12    1
    19     7     8    1
    20     8    10    1
    21     8     9    1
    22     9    23    1
    23    10    11    1
    24    12    14    1
    25    12    19    1
    26    12    13    1
    27    14    15    1
    28    15    16    1
    29    16    18    1
    30    16    17    1
    31    17    24    1
    32    18    19    1
    33    19    20    1
    34    20    21    1
    35    21    22    1
    36    22    25    1
#	Name:			CHEMBL2079587
#	Creating user name:	trannguyen
#	Creation time:		Tue Feb  8 18:26:14 2022


#	Modifying user name:	trannguyen
#	Modification time:	Tue Feb  8 18:26:14 2022

@<TRIPOS>MOLECULE
CHEMBL2079587
 26 30 0 0 0
SMALL
GASTEIGER

@<TRIPOS>ATOM
      1 C           3.8465   32.0405    5.0797 C.3     1  UNL1        0.0003
      2 C           5.2939   32.2021    4.6066 C.3     1  UNL1        0.0045
      3 C           5.5568   31.1060    3.5269 C.3     1  UNL1        0.0292
      4 C           6.8262   31.5188    3.0296 C.ar    1  UNL1        0.0115
      5 C           7.6358   31.2260    1.9237 C.ar    1  UNL1        0.0877
      6 N           8.7139   32.0391    2.0921 N.ar    1  UNL1       -0.2749
      7 H           9.5386   32.1335    1.4819 H       1  UNL1        0.1890
      8 N           8.6350   32.8486    3.1348 N.ar    1  UNL1       -0.1773
      9 C           7.4074   32.6136    3.6809 C.ar    1  UNL1        0.0758
     10 C           6.4072   33.7322    4.8774 C.3     1  UNL1        0.0473
     11 C           5.6189   33.8956    3.7618 C.3     1  UNL1        0.0063
     12 C           7.2401   34.8640    3.7870 C.3     1  UNL1        0.0004
     13 C           8.4441   34.1868    5.1869 C.3     1  UNL1        0.0000
     14 C           8.0840   32.4764    5.9823 C.3     1  UNL1        0.0001
     15 C           6.4697   31.9230    6.1083 C.3     1  UNL1        0.0003
     16 C           6.0800   32.5651    7.5589 C.3     1  UNL1        0.0001
     17 C           7.1955   33.4639    8.3790 C.3     1  UNL1        0.0022
     18 C           8.7352   33.0107    8.4232 C.3     1  UNL1        0.0226
     19 C           9.0517   32.6604    9.9060 C.3     1  UNL1        0.0023
     20 C           8.6982   31.9261    7.3672 C.3     1  UNL1        0.0022
     21 C          10.1028   31.4527    7.1540 C.3     1  UNL1        0.0025
     22 C          10.7695   32.7866    6.8854 C.3     1  UNL1        0.0269
     23 C          10.0692   33.7785    7.9027 C.3     1  UNL1        0.0883
     24 C           9.8618   35.2537    7.5995 C.3     1  UNL1        0.0293
     25 O          11.1308   33.8643    8.8918 O.3     1  UNL1       -0.3867
     26 H          11.8916   34.2663    8.4260 H       1  UNL1        0.2102
@<TRIPOS>BOND
     1     2     3    1
     2     2    11    1
     3     2    15    1
     4     2     1    1
     5     3     4    1
     6     4     5   ar
     7     4     9   ar
     8     5     6   ar
     9     6     8   ar
    10     6     7    1
    11     8     9   ar
    12     9    10    1
    13    10    11    1
    14    11    12    1
    15    12    13    1
    16    13    14    1
    17    14    15    1
    18    14    20    1
    19    15    16    1
    20    16    17    1
    21    17    18    1
    22    18    20    1
    23    18    23    1
    24    18    19    1
    25    20    21    1
    26    21    22    1
    27    22    23    1
    28    23    25    1
    29    23    24    1
    30    25    26    1
#	Name:			CHEMBL20883
#	Creating user name:	trannguyen
#	Creation time:		Tue Feb  8 18:26:14 2022


#	Modifying user name:	trannguyen
#	Modification time:	Tue Feb  8 18:26:14 2022

@<TRIPOS>MOLECULE
CHEMBL20883
 15 16 0 0 0
SMALL
GASTEIGER

@<TRIPOS>ATOM
      1 O           3.4654   34.0307    6.1854 O.2     1  UNL1       -0.2646
      2 C           3.1548   33.2306    7.0601 C.ar    1  UNL1        0.2901
      3 N           2.9928   33.6023    8.3695 N.ar    1  UNL1       -0.2725
      4 H           3.1351   34.5761    8.5886 H       1  UNL1        0.1735
      5 C           2.6136   32.7859    9.4063 C.ar    1  UNL1        0.3323
      6 O           2.4492   33.2513   10.5314 O.2     1  UNL1       -0.2464
      7 N           2.4266   31.4454    9.0829 N.ar    1  UNL1       -0.2549
      8 C           2.5646   30.9881    7.7837 C.ar    1  UNL1        0.1164
      9 C           2.9137   31.8017    6.7881 C.ar    1  UNL1        0.2130
     10 F           3.0502   31.3745    5.5197 F       1  UNL1       -0.1975
     11 C           2.0065   30.5585   10.1589 C.3     1  UNL1        0.2081
     12 C           1.0007   29.5073    9.7074 C.3     1  UNL1        0.0566
     13 C           1.2384   28.4063   10.7085 C.3     1  UNL1        0.0367
     14 C           2.7388   28.4694   10.8898 C.3     1  UNL1        0.1444
     15 O           3.1252   29.8395   10.7119 O.3     1  UNL1       -0.3354
@<TRIPOS>BOND
     1     1     2    2
     2     2     3   ar
     3     2     9   ar
     4     3     4    1
     5     3     5   ar
     6     5     6    2
     7     5     7   ar
     8     7    11    1
     9     7     8   ar
    10    11    12    1
    11    11    15    1
    12    12    13    1
    13    13    14    1
    14    14    15    1
    15     8     9   ar
    16     9    10    1
#	Name:			CHEMBL20
#	Creating user name:	trannguyen
#	Creation time:		Tue Feb  8 18:26:14 2022


#	Modifying user name:	trannguyen
#	Modification time:	Tue Feb  8 18:26:14 2022

@<TRIPOS>MOLECULE
CHEMBL20
 16 16 0 0 0
SMALL
GASTEIGER

@<TRIPOS>ATOM
      1 C           3.3637   31.4132    9.5938 C.ar    1  UNL1        0.1893
      2 N           4.4018   30.7222   10.0027 N.ar    1  UNL1       -0.1239
      3 N           4.0388   29.5171   10.5530 N.ar    1  UNL1       -0.1190
      4 C           2.7309   29.3679   10.5271 C.ar    1  UNL1        0.2556
      5 S           1.8489   30.6721    9.8676 S.2     1  UNL1       -0.0105
      6 S           1.8937   27.9407   11.1180 S.O2    1  UNL1        0.0815
      7 N           0.2603   28.1242   10.7174 N.3     1  UNL1       -0.2015
      8 O           2.4006   26.8365   10.3332 O.2     1  UNL1       -0.1512
      9 O           1.9840   27.9983   12.5569 O.2     1  UNL1       -0.1512
     10 H           0.1294   28.1848    9.7070 H       1  UNL1        0.1443
     11 H          -0.1588   28.9067   11.2217 H       1  UNL1        0.1443
     12 C           3.3236   31.6100    6.6978 C.3     1  UNL1        0.0950
     13 C           3.3368   32.8057    7.6175 C.2     1  UNL1        0.2281
     14 O           3.3284   33.9526    7.1657 O.2     1  UNL1       -0.2747
     15 N           3.3366   32.6268    8.9712 N.am    1  UNL1       -0.2627
     16 H           3.2903   33.4658    9.5327 H       1  UNL1        0.1568
@<TRIPOS>BOND
     1    12    13    1
     2    13    14    2
     3    13    15   am
     4    15     1    1
     5    15    16    1
     6     1     2   ar
     7     1     5   ar
     8     2     3   ar
     9     3     4   ar
    10     4     6    1
    11     4     5   ar
    12     6     7    1
    13     6     8    2
    14     6     9    2
    15     7    10    1
    16     7    11    1
#	Name:			CHEMBL2103747
#	Creating user name:	trannguyen
#	Creation time:		Tue Feb  8 18:26:14 2022


#	Modifying user name:	trannguyen
#	Modification time:	Tue Feb  8 18:26:14 2022

@<TRIPOS>MOLECULE
CHEMBL2103747
 49 55 0 0 0
SMALL
GASTEIGER

@<TRIPOS>ATOM
      1 N          11.6622   33.3323    8.3052 N.3     1  UNL1       -0.2735
      2 C          12.4257   34.0213    7.1722 C.3     1  UNL1        0.0768
      3 C          11.7257   35.3703    6.6810 C.3     1  UNL1        0.0692
      4 C          10.0018   35.3418    6.6806 C.3     1  UNL1        0.0368
      5 C           9.1172   34.1371    5.9879 C.3     1  UNL1        0.1203
      6 C           9.1654   32.8905    7.0491 C.3     1  UNL1        0.0811
      7 C          10.1801   33.5185    8.0577 C.3     1  UNL1        0.0655
      8 C           9.6025   35.0663    8.1722 C.3     1  UNL1        0.0415
      9 C          10.2418   36.1656    9.1040 C.3     1  UNL1        0.1189
     10 C          11.7482   36.2004    9.1018 C.3     1  UNL1        0.0589
     11 C          12.2253   36.4681    7.6900 C.3     1  UNL1        0.1165
     12 O          13.6569   36.5841    7.7330 O.3     1  UNL1       -0.3842
     13 C           7.9164   35.1078    8.4615 C.3     1  UNL1        0.0131
     14 C           7.4958   35.2543    9.9847 C.3     1  UNL1        0.0334
     15 C           6.9043   33.8640   10.5044 C.3     1  UNL1        0.1521
     16 O           6.2358   34.1942   11.7023 O.3     1  UNL1       -0.3807
     17 C           7.9456   32.5396   10.5783 C.3     1  UNL1        0.1732
     18 C           8.0099   31.6078    9.0875 C.3     1  UNL1        0.1767
     19 O           9.0958   30.6958    8.9784 O.3     1  UNL1       -0.3786
     20 C           7.8353   32.5102    7.7225 C.3     1  UNL1        0.1694
     21 C           7.2053   33.7462    8.2690 C.3     1  UNL1        0.0821
     22 C           5.9945   33.5157    9.3458 C.3     1  UNL1        0.1990
     23 H          13.9911   35.9931    8.4329 H       1  UNL1        0.2103
     24 H           6.8888   34.4219   12.3792 H       1  UNL1        0.2105
     25 H           8.9173   30.1311    8.2027 H       1  UNL1        0.2106
     26 C          12.4233   31.3176    9.6667 C.3     1  UNL1        0.0188
     27 C          11.9894   31.8803    8.3171 C.3     1  UNL1        0.0721
     28 O           9.6010   33.7653    4.7080 O.3     1  UNL1       -0.3534
     29 C           9.0325   34.5307    3.6490 C.3     1  UNL1        0.1740
     30 O           9.7186   37.4488    8.6608 O.3     1  UNL1       -0.3534
     31 C           9.5209   38.4442    9.6665 C.3     1  UNL1        0.1740
     32 O           9.2151   33.0983   10.9311 O.3     1  UNL1       -0.3485
     33 C           9.4503   33.1937   12.3235 C.3     1  UNL1        0.1742
     34 C          12.3097   35.7995    5.3083 C.3     1  UNL1        0.1459
     35 O          13.6514   35.3708    5.1225 O.3     1  UNL1       -0.3510
     36 C          13.8512   34.8102    3.8304 C.3     1  UNL1        0.1741
     37 O           7.0583   31.7461    6.7792 O.3     1  UNL1       -0.4530
     38 C           6.3521   32.3846    5.7883 C.2     1  UNL1        0.3174
     39 C           6.7139   31.6316    4.5293 C.3     1  UNL1        0.1212
     40 O           5.5306   33.3005    5.8956 O.2     1  UNL1       -0.2501
     41 O           5.4428   32.1377    9.4724 O.3     1  UNL1       -0.4466
     42 C           4.1507   31.8251    9.0524 C.2     1  UNL1        0.3412
     43 O           3.3179   32.5488    8.6287 O.2     1  UNL1       -0.2449
     44 C           3.7256   30.4581    9.5200 C.ar    1  UNL1        0.0756
     45 C           4.7311   29.5043    9.7596 C.ar    1  UNL1        0.0064
     46 C           4.4011   28.1857   10.0950 C.ar    1  UNL1        0.0002
     47 C           3.0621   27.8250   10.2035 C.ar    1  UNL1        0.0000
     48 C           2.0626   28.7868   10.0291 C.ar    1  UNL1        0.0002
     49 C           2.3962   30.1065    9.6996 C.ar    1  UNL1        0.0064
@<TRIPOS>BOND
     1    26    27    1
     2    27     1    1
     3     1     2    1
     4     1     7    1
     5     2     3    1
     6     3    34    1
     7     3     4    1
     8     3    11    1
     9    34    35    1
    10    35    36    1
    11     4     5    1
    12     4     8    1
    13     5     6    1
    14     5    28    1
    15    28    29    1
    16     6     7    1
    17     6    20    1
    18     8     7    1
    19     8     9    1
    20     8    13    1
    21     9    30    1
    22     9    10    1
    23    30    31    1
    24    10    11    1
    25    11    12    1
    26    12    23    1
    27    13    14    1
    28    13    21    1
    29    14    15    1
    30    15    16    1
    31    15    17    1
    32    15    22    1
    33    16    24    1
    34    17    18    1
    35    17    32    1
    36    32    33    1
    37    18    19    1
    38    18    20    1
    39    19    25    1
    40    20    37    1
    41    20    21    1
    42    37    38    1
    43    38    39    1
    44    38    40    2
    45    21    22    1
    46    22    41    1
    47    41    42    1
    48    42    43    2
    49    42    44    1
    50    44    45   ar
    51    44    49   ar
    52    45    46   ar
    53    46    47   ar
    54    47    48   ar
    55    48    49   ar
#	Name:			CHEMBL2103774
#	Creating user name:	trannguyen
#	Creation time:		Tue Feb  8 18:26:14 2022


#	Modifying user name:	trannguyen
#	Modification time:	Tue Feb  8 18:26:14 2022

@<TRIPOS>MOLECULE
CHEMBL2103774
 24 27 0 0 0
SMALL
GASTEIGER

@<TRIPOS>ATOM
      1 C           7.2012   33.1789    7.6932 C.3     1  UNL1        0.1420
      2 O           8.2707   32.7054    8.5065 O.3     1  UNL1       -0.3753
      3 C           6.8290   31.9898    6.7504 C.3     1  UNL1        0.0395
      4 C           5.5123   32.5008    6.3697 C.3     1  UNL1        0.0036
      5 C           4.9984   32.6764    7.7897 C.3     1  UNL1        0.0035
      6 C           4.6902   31.3840    8.5389 C.3     1  UNL1        0.0041
      7 C           3.2432   31.6401    9.0128 C.3     1  UNL1        0.0177
      8 C           3.3010   33.0375    9.7596 C.3     1  UNL1        0.0041
      9 C           4.2904   34.2075    9.0852 C.3     1  UNL1        0.0035
     10 C           5.8467   33.7402    8.6109 C.3     1  UNL1        0.0333
     11 C           6.4490   33.9617   10.0296 C.3     1  UNL1        0.0033
     12 C           2.7032   30.3453    9.6739 C.2     1  UNL1       -0.0516
     13 C           3.5290   29.3356   10.0509 C.2     1  UNL1       -0.0448
     14 C           3.1159   28.0051   10.6117 C.3     1  UNL1        0.0859
     15 C           1.6702   28.0597   10.9973 C.2     1  UNL1        0.1550
     16 O           1.2505   27.5420   12.0302 O.2     1  UNL1       -0.2957
     17 C           0.7675   28.6858    9.9717 C.3     1  UNL1        0.0692
     18 C           1.2021   30.1316    9.6948 C.3     1  UNL1        0.0291
     19 C           5.0132   29.4219    9.9662 C.3     1  UNL1        0.0218
     20 C           5.4691   30.8614    9.8046 C.3     1  UNL1        0.0043
     21 C           6.9762   30.7696   10.0038 C.3     1  UNL1        0.0003
     22 H           8.7067   31.9424    8.0624 H       1  UNL1        0.2114
     23 C           8.8385   34.8282    6.5332 C.1     1  UNL1       -0.0119
     24 C           7.8900   34.0953    6.7613 C.1     1  UNL1       -0.0526
@<TRIPOS>BOND
     1    23    24    3
     2     1     3    1
     3     1    10    1
     4     1     2    1
     5     1    24    1
     6     2    22    1
     7     3     4    1
     8     4     5    1
     9     5     6    1
    10     5    10    1
    11     6     7    1
    12     6    20    1
    13     7     8    1
    14     7    12    1
    15     8     9    1
    16     9    10    1
    17    10    11    1
    18    12    13    2
    19    12    18    1
    20    13    14    1
    21    13    19    1
    22    14    15    1
    23    15    16    2
    24    15    17    1
    25    17    18    1
    26    19    20    1
    27    20    21    1
#	Name:			CHEMBL2105617
#	Creating user name:	trannguyen
#	Creation time:		Tue Feb  8 18:26:14 2022


#	Modifying user name:	trannguyen
#	Modification time:	Tue Feb  8 18:26:14 2022

@<TRIPOS>MOLECULE
CHEMBL2105617
 26 31 0 0 0
SMALL
GASTEIGER

@<TRIPOS>ATOM
      1 C           8.3209   34.1615   11.1484 C.3     1  UNL1        0.0430
      2 C           7.6453   34.7059    9.8558 C.3     1  UNL1        0.0088
      3 C           6.1442   34.3654   10.1195 C.3     1  UNL1        0.0180
      4 C           5.9436   32.8992    9.6064 C.3     1  UNL1        0.0779
      5 C           5.6143   32.1200    8.2804 C.3     1  UNL1        0.0934
      6 N           4.3108   32.3501    7.5891 N.pl3   1  UNL1       -0.3059
      7 C           3.5035   33.5290    7.8576 C.3     1  UNL1        0.1122
      8 C           4.6437   32.1662    6.2188 C.ar    1  UNL1        0.0439
      9 C           3.7384   32.0118    5.1806 C.ar    1  UNL1        0.0142
     10 C           4.2227   31.7673    3.8919 C.ar    1  UNL1        0.0012
     11 C           5.6015   31.6778    3.6508 C.ar    1  UNL1       -0.0002
     12 C           6.5154   31.8459    4.6913 C.ar    1  UNL1       -0.0029
     13 C           6.0242   32.1006    5.9627 C.ar    1  UNL1       -0.0056
     14 C           6.7667   32.4224    7.2091 C.3     1  UNL1        0.0639
     15 C           7.9712   31.6302    7.6625 C.3     1  UNL1        0.0242
     16 C           8.3066   32.4173    8.9382 C.3     1  UNL1        0.0623
     17 C           8.2249   33.9276    8.5822 C.3     1  UNL1        0.0422
     18 C           7.3579   33.8982    7.2768 C.3     1  UNL1        0.1170
     19 O           8.2507   34.1381    6.1798 O.3     1  UNL1       -0.3840
     20 N           7.2724   32.1933    9.9907 N.3     1  UNL1       -0.2520
     21 C           7.8727   32.6723   11.2527 C.3     1  UNL1        0.1720
     22 O           6.9361   32.4931   12.2954 O.3     1  UNL1       -0.3698
     23 H           7.6982   34.1864    5.3783 H       1  UNL1        0.2103
     24 H           6.5274   31.6362   12.0851 H       1  UNL1        0.2119
     25 C          10.2247   35.8411   10.9909 C.3     1  UNL1        0.0001
     26 C           9.8447   34.3743   11.1512 C.3     1  UNL1        0.0039
@<TRIPOS>BOND
     1    25    26    1
     2    26     1    1
     3     1     2    1
     4     1    21    1
     5     2     3    1
     6     2    17    1
     7     3     4    1
     8     4     5    1
     9     4    20    1
    10     5     6    1
    11     5    14    1
    12     6     7    1
    13     6     8    1
    14     8     9   ar
    15     8    13   ar
    16     9    10   ar
    17    10    11   ar
    18    11    12   ar
    19    12    13   ar
    20    13    14    1
    21    14    15    1
    22    14    18    1
    23    15    16    1
    24    16    17    1
    25    16    20    1
    26    17    18    1
    27    18    19    1
    28    19    23    1
    29    20    21    1
    30    21    22    1
    31    22    24    1
#	Name:			CHEMBL2105807
#	Creating user name:	trannguyen
#	Creation time:		Tue Feb  8 18:26:14 2022


#	Modifying user name:	trannguyen
#	Modification time:	Tue Feb  8 18:26:14 2022

@<TRIPOS>MOLECULE
CHEMBL2105807
 68 74 0 0 0
SMALL
GASTEIGER

@<TRIPOS>ATOM
      1 C          11.6611   34.2653   -2.5758 C.3     1  UNL1        0.1200
      2 C          12.6454   34.5930   -1.4520 C.3     1  UNL1        0.0322
      3 C          11.1792   32.8531   -2.5013 C.3     1  UNL1        0.0323
      4 C          10.2392   32.8262   -1.3328 C.3     1  UNL1        0.0345
      5 C           9.5999   34.2045   -1.3069 C.3     1  UNL1        0.1399
      6 O          10.3869   34.9801   -2.3049 O.3     1  UNL1       -0.3562
      7 C           7.9424   34.3979   -1.3287 C.3     1  UNL1        0.1200
      8 C           7.5019   34.2968   -2.7953 C.3     1  UNL1        0.0322
      9 C           7.5303   35.7243   -0.7235 C.3     1  UNL1        0.0347
     10 C           7.5879   35.4056    0.7608 C.3     1  UNL1        0.0588
     11 C           7.2924   33.8873    0.9160 C.3     1  UNL1        0.1892
     12 C           8.1898   32.6666    1.1353 C.3     1  UNL1        0.0855
     13 C           7.7447   31.5285    2.0352 C.3     1  UNL1        0.1177
     14 O           7.4237   30.3856    1.2643 O.3     1  UNL1       -0.3842
     15 C           6.6135   31.8994    2.9520 C.3     1  UNL1        0.0544
     16 C           6.4404   30.8893    4.0740 C.3     1  UNL1        0.0050
     17 C           6.7799   33.3828    3.2821 C.3     1  UNL1        0.1222
     18 O           6.3536   33.9746    2.0006 O.3     1  UNL1       -0.3365
     19 O           6.9957   33.5892   -0.4960 O.3     1  UNL1       -0.3366
     20 H           8.2443   30.1529    0.7925 H       1  UNL1        0.2103
     21 C           8.0837   33.9879    4.1091 C.3     1  UNL1        0.0572
     22 C           7.9511   35.4965    4.2914 C.3     1  UNL1        0.0051
     23 C           8.7303   33.4521    5.4982 C.3     1  UNL1        0.1493
     24 O           7.7413   33.0472    6.4931 O.3     1  UNL1       -0.3337
     25 C           7.9511   33.4050    7.9035 C.3     1  UNL1        0.1965
     26 O           9.0687   32.6968    8.4054 O.3     1  UNL1       -0.3631
     27 C           8.2003   34.9145    7.8692 C.3     1  UNL1        0.0815
     28 C           7.9841   35.7866    9.1002 C.3     1  UNL1        0.0076
     29 C           9.6157   35.1372    7.3291 C.3     1  UNL1        0.1493
     30 C           9.9402   34.2948    6.0646 C.3     1  UNL1        0.1695
     31 H           8.7885   31.8359    8.7482 H       1  UNL1        0.2128
     32 O           9.9395   36.5359    7.1927 O.3     1  UNL1       -0.3508
     33 C          11.1505   36.9714    7.7852 C.3     1  UNL1        0.1741
     34 O          10.9735   33.3061    6.3772 O.3     1  UNL1       -0.3486
     35 C          11.0573   32.2270    5.4557 C.3     1  UNL1        0.1742
     36 C           6.6754   33.0116    8.6714 C.3     1  UNL1        0.1651
     37 C           6.7629   32.3476   10.0560 C.2     1  UNL1        0.3188
     38 O           6.5990   32.8811   11.0894 O.2     1  UNL1       -0.2501
     39 O           7.2862   31.1011   10.0443 O.3     1  UNL1       -0.4801
     40 H           7.8247   31.0266   10.8578 H       1  UNL1        0.2951
     41 C          11.5543   34.4572   -5.3169 C.3     1  UNL1        0.1496
     42 C          11.0792   35.8791   -5.4987 C.3     1  UNL1        0.0643
     43 C          12.1810   36.7361   -4.8763 C.3     1  UNL1        0.1449
     44 O          12.9593   35.8587   -4.0276 O.3     1  UNL1       -0.3513
     45 C          12.3678   34.5291   -3.9837 C.3     1  UNL1        0.1669
     46 C          13.0824   37.5051   -5.8968 C.3     1  UNL1        0.1445
     47 O          12.8244   36.9493   -7.1984 O.3     1  UNL1       -0.3345
     48 C          13.0857   37.7954   -8.3157 C.3     1  UNL1        0.1835
     49 C          12.8771   36.9520   -9.5802 C.3     1  UNL1        0.0610
     50 O          14.4333   38.2290   -8.3111 O.3     1  UNL1       -0.3635
     51 C          12.1077   38.9861   -8.2938 C.3     1  UNL1        0.0514
     52 C          12.4417   40.1081   -9.2781 C.3     1  UNL1        0.0050
     53 C          11.9175   39.5745   -6.8921 C.3     1  UNL1        0.0073
     54 C          12.8430   39.0362   -5.8021 C.3     1  UNL1        0.0299
     55 C          14.1517   39.8357   -5.7406 C.3     1  UNL1        0.0026
     56 H          14.9743   37.4521   -8.5249 H       1  UNL1        0.2128
     57 O          10.4545   33.5552   -5.4459 O.3     1  UNL1       -0.3303
     58 C           7.2246   32.9634   -7.2761 C.3     1  UNL1        0.1498
     59 C           8.1481   33.1385   -6.0831 C.3     1  UNL1        0.0934
     60 C           9.4043   33.9277   -6.3743 C.3     1  UNL1        0.2377
     61 O           9.8725   33.6895   -7.7087 O.3     1  UNL1       -0.3304
     62 C           8.9806   34.0999   -8.7530 C.3     1  UNL1        0.1472
     63 C           9.2648   33.3386  -10.0516 C.3     1  UNL1        0.0348
     64 C           7.4777   33.9928   -8.3985 C.3     1  UNL1        0.1694
     65 C           6.5816   31.2789   -8.8427 C.3     1  UNL1        0.1741
     66 O           7.3804   31.6045   -7.7161 O.3     1  UNL1       -0.3508
     67 O           7.0102   35.2897   -7.9759 O.3     1  UNL1       -0.3486
     68 C           6.4174   36.0388   -9.0428 C.3     1  UNL1        0.1742
@<TRIPOS>BOND
     1    65    66    1
     2    66    58    1
     3    58    59    1
     4    58    64    1
     5    59    60    1
     6    60    61    1
     7    60    57    1
     8    57    41    1
     9    41    42    1
    10    41    45    1
    11    42    43    1
    12    43    46    1
    13    43    44    1
    14    46    47    1
    15    46    54    1
    16    47    48    1
    17    48    49    1
    18    48    50    1
    19    48    51    1
    20    50    56    1
    21    51    52    1
    22    51    53    1
    23    53    54    1
    24    54    55    1
    25    44    45    1
    26     1     3    1
    27     1     6    1
    28     1    45    1
    29     1     2    1
    30     3     4    1
    31     4     5    1
    32     5     6    1
    33     5     7    1
    34     7     9    1
    35     7    19    1
    36     7     8    1
    37     9    10    1
    38    11    10    1
    39    11    12    1
    40    11    18    1
    41    11    19    1
    42    12    13    1
    43    13    15    1
    44    13    14    1
    45    14    20    1
    46    15    17    1
    47    15    16    1
    48    17    18    1
    49    17    21    1
    50    21    22    1
    51    23    24    1
    52    23    30    1
    53    23    21    1
    54    24    25    1
    55    25    26    1
    56    25    36    1
    57    25    27    1
    58    26    31    1
    59    36    37    1
    60    37    38    2
    61    37    39    1
    62    39    40    1
    63    27    29    1
    64    27    28    1
    65    29    32    1
    66    29    30    1
    67    32    33    1
    68    30    34    1
    69    34    35    1
    70    61    62    1
    71    62    64    1
    72    62    63    1
    73    64    67    1
    74    67    68    1
#	Name:			CHEMBL2106399
#	Creating user name:	trannguyen
#	Creation time:		Tue Feb  8 18:26:14 2022


#	Modifying user name:	trannguyen
#	Modification time:	Tue Feb  8 18:26:14 2022

@<TRIPOS>MOLECULE
CHEMBL2106399
 59 61 0 0 0
SMALL
GASTEIGER

@<TRIPOS>ATOM
      1 C           7.4801   36.0506   -6.4496 C.3     1  UNL1        0.2645
      2 O           8.7321   36.3360   -7.0522 O.3     1  UNL1       -0.3286
      3 C           9.6642   35.2086   -7.0459 C.3     1  UNL1        0.1464
      4 C          10.3398   35.3747   -8.4078 C.3     1  UNL1        0.0348
      5 C           9.0497   33.7806   -6.9190 C.3     1  UNL1        0.1618
      6 C           7.8336   33.6874   -7.8780 C.3     1  UNL1        0.1197
      7 C           6.8539   34.5442   -7.1318 C.3     1  UNL1        0.1840
      8 O           6.2762   33.3032   -6.4932 O.3     1  UNL1       -0.3783
      9 H           6.9623   32.7971   -5.9652 H       1  UNL1        0.2106
     10 N           7.6015   33.7448   -9.3454 N.3     1  UNL1       -0.2672
     11 C           6.8875   32.5248   -9.7546 C.3     1  UNL1        0.0898
     12 C           6.6178   34.8451   -9.6372 C.3     1  UNL1        0.0898
     13 O           6.5017   37.1285   -6.2751 O.3     1  UNL1       -0.3286
     14 C           8.2542   38.8063   -7.6168 C.3     1  UNL1        0.1695
     15 C           6.8136   38.4332   -6.9328 C.3     1  UNL1        0.1476
     16 C           6.2255   39.5757   -6.0066 C.3     1  UNL1        0.0377
     17 C           6.2917   39.2713   -4.4813 C.3     1  UNL1        0.0057
     18 C           6.6762   40.4500   -3.5191 C.3     1  UNL1        0.0312
     19 C           5.7210   41.6358   -3.3968 C.3     1  UNL1        0.0028
     20 C           6.8342   39.9687   -2.0632 C.3     1  UNL1        0.1324
     21 O           5.7904   39.0554   -1.7202 O.3     1  UNL1       -0.3801
     22 C           8.2533   39.5126   -1.7726 C.2     1  UNL1        0.0025
     23 C           8.6008   38.3572   -1.1913 C.2     1  UNL1       -0.0025
     24 C           9.8353   38.0434   -0.4836 C.2     1  UNL1       -0.0047
     25 C          11.0785   37.5799   -0.7542 C.2     1  UNL1       -0.0224
     26 C          11.9574   37.1870   -1.9437 C.3     1  UNL1        0.0696
     27 C          12.3509   38.2580   -2.9951 C.3     1  UNL1        0.1733
     28 C          13.2251   39.2958   -2.2900 C.3     1  UNL1        0.0477
     29 O          11.1297   38.7809   -3.6127 O.3     1  UNL1       -0.4519
     30 C          11.1822   39.3232   -4.9092 C.2     1  UNL1        0.3195
     31 O          12.1479   39.6499   -5.4734 O.2     1  UNL1       -0.2500
     32 C           9.6692   39.1620   -5.5001 C.3     1  UNL1        0.1412
     33 C           9.3605   39.7248   -6.8795 C.3     1  UNL1        0.1510
     34 O           8.9955   41.0782   -6.6689 O.3     1  UNL1       -0.3813
     35 H           4.9556   39.3766   -2.1179 H       1  UNL1        0.2108
     36 H           9.6154   41.5982   -7.2170 H       1  UNL1        0.2105
     37 C           6.9330   38.7926   -9.6372 C.3     1  UNL1        0.1742
     38 O           8.0575   39.3257   -8.9624 O.3     1  UNL1       -0.3486
     39 C           4.7551   39.7026   -6.4728 C.3     1  UNL1        0.0747
     40 C           4.2772   41.0670   -6.8322 C.2     1  UNL1        0.2075
     41 O           3.4618   41.7178   -6.2021 O.2     1  UNL1       -0.2883
     42 O           8.5840   33.3189   -5.4259 O.3     1  UNL1       -0.3290
     43 C           9.4714   33.7174   -4.2566 C.3     1  UNL1        0.2377
     44 C           8.9899   34.8391   -3.1787 C.3     1  UNL1        0.0918
     45 C           8.0264   34.0852   -2.2664 C.3     1  UNL1        0.1322
     46 C           7.1085   35.0853   -1.5043 C.3     1  UNL1        0.0333
     47 O           7.2554   33.1408   -3.0320 O.3     1  UNL1       -0.3830
     48 C           8.8971   33.2590   -1.3431 C.3     1  UNL1        0.2200
     49 C          10.2348   32.9129   -1.9958 C.3     1  UNL1        0.1600
     50 C          11.0886   33.7302   -1.1201 C.3     1  UNL1        0.0361
     51 O          10.2422   32.8171   -3.4360 O.3     1  UNL1       -0.3291
     52 H           7.8721   32.4317   -3.3408 H       1  UNL1        0.2104
     53 O           8.2829   32.1088   -0.8372 O.3     1  UNL1       -0.4473
     54 C           8.4099   31.9316    0.5268 C.2     1  UNL1        0.3170
     55 O           9.0798   31.2096    1.1699 O.2     1  UNL1       -0.2501
     56 C           7.3854   32.8564    1.1634 C.3     1  UNL1        0.1096
     57 C           8.1230   33.5058    2.2771 C.3     1  UNL1        0.0111
     58 C           8.2991   34.9933    1.9529 C.3     1  UNL1        0.0006
     59 C           7.3659   33.3619    3.5847 C.3     1  UNL1        0.0006
@<TRIPOS>BOND
     1    37    38    1
     2    38    14    1
     3    14    15    1
     4    14    33    1
     5    15    13    1
     6    15    16    1
     7     1     2    1
     8     1     7    1
     9     1    13    1
    10     2     3    1
    11     3     4    1
    12     3     5    1
    13     5     6    1
    14     5    42    1
    15    42    43    1
    16    43    44    1
    17    43    51    1
    18    44    45    1
    19    45    48    1
    20    45    47    1
    21    45    46    1
    22    47    52    1
    23    48    49    1
    24    48    53    1
    25    53    54    1
    26    54    55    2
    27    54    56    1
    28    56    57    1
    29    57    58    1
    30    57    59    1
    31    49    50    1
    32    49    51    1
    33     6    10    1
    34     6     7    1
    35    10    11    1
    36    10    12    1
    37     7     8    1
    38     8     9    1
    39    16    39    1
    40    16    17    1
    41    39    40    1
    42    40    41    2
    43    17    18    1
    44    18    19    1
    45    18    20    1
    46    20    21    1
    47    20    22    1
    48    21    35    1
    49    22    23    2
    50    23    24    1
    51    24    25    2
    52    25    26    1
    53    26    27    1
    54    27    28    1
    55    27    29    1
    56    29    30    1
    57    30    31    2
    58    30    32    1
    59    32    33    1
    60    33    34    1
    61    34    36    1
#	Name:			CHEMBL2107687
#	Creating user name:	trannguyen
#	Creation time:		Tue Feb  8 18:26:14 2022


#	Modifying user name:	trannguyen
#	Modification time:	Tue Feb  8 18:26:14 2022

@<TRIPOS>MOLECULE
CHEMBL2107687
 22 22 0 0 0
SMALL
GASTEIGER

@<TRIPOS>ATOM
      1 C           3.7295   31.5021    8.8034 C.3     1  UNL1        0.1212
      2 C           3.3048   30.2090    9.4995 C.ar    1  UNL1       -0.0120
      3 C           4.2397   29.1697    9.6335 C.ar    1  UNL1       -0.0037
      4 C           3.8925   27.9535   10.2254 C.ar    1  UNL1       -0.0003
      5 C           2.6023   27.7569   10.7051 C.ar    1  UNL1       -0.0000
      6 C           1.6635   28.7783   10.5964 C.ar    1  UNL1       -0.0003
      7 C           2.0131   29.9978   10.0070 C.ar    1  UNL1       -0.0037
      8 C           3.5456   31.5524    7.2535 C.3     1  UNL1        0.0147
      9 C           4.1188   32.8182    6.5961 C.3     1  UNL1        0.0009
     10 C           1.8479   31.7470    5.3293 C.3     1  UNL1        0.0000
     11 C           2.0933   31.3460    6.7764 C.3     1  UNL1        0.0009
     12 C           3.1249   32.7542    9.4702 C.2     1  UNL1        0.3208
     13 O           2.0812   33.2880    9.2192 O.2     1  UNL1       -0.2498
     14 O           4.0789   33.2520   10.3446 O.3     1  UNL1       -0.4418
     15 C           5.0630   34.1504    9.7861 C.3     1  UNL1        0.2688
     16 C           6.4042   34.0618   10.5365 C.3     1  UNL1        0.1570
     17 N           7.5716   33.3565    9.7686 N.4     1  UNL1        0.3044
     18 C           7.3639   33.7282    8.2962 C.3     1  UNL1        0.1706
     19 C           8.9466   33.8283   10.2773 C.3     1  UNL1        0.1091
     20 C           9.2764   33.3907   11.7044 C.3     1  UNL1        0.0671
     21 C           7.3775   31.8149    9.9187 C.3     1  UNL1        0.1091
     22 C           7.3614   31.0526    8.5956 C.3     1  UNL1        0.0671
@<TRIPOS>UNITY_ATOM_ATTR
17 1
charge 1
@<TRIPOS>BOND
     1    10    11    1
     2    11     8    1
     3     8     9    1
     4     8     1    1
     5     1    12    1
     6     1     2    1
     7    12    13    2
     8    12    14    1
     9    14    15    1
    10    15    16    1
    11    16    17    1
    12    17    18    1
    13    17    19    1
    14    17    21    1
    15    19    20    1
    16    21    22    1
    17     2     3   ar
    18     2     7   ar
    19     3     4   ar
    20     4     5   ar
    21     5     6   ar
    22     6     7   ar
#	Name:			CHEMBL2107797
#	Creating user name:	trannguyen
#	Creation time:		Tue Feb  8 18:26:14 2022


#	Modifying user name:	trannguyen
#	Modification time:	Tue Feb  8 18:26:14 2022

@<TRIPOS>MOLECULE
CHEMBL2107797
 24 27 0 0 0
SMALL
GASTEIGER

@<TRIPOS>ATOM
      1 C           3.1847   33.6061    4.9621 C.3     1  UNL1        0.1420
      2 O           3.0990   34.8564    5.6567 O.3     1  UNL1       -0.3753
      3 C           1.7650   33.2730    4.5048 C.3     1  UNL1        0.0395
      4 C           1.0927   32.8099    5.7900 C.3     1  UNL1        0.0035
      5 C           2.1655   32.0216    6.5663 C.3     1  UNL1        0.0032
      6 C           2.0586   32.2330    8.0955 C.3     1  UNL1        0.0007
      7 C           0.7175   31.7706    8.6887 C.3     1  UNL1        0.0044
      8 C           0.5555   30.2577    8.6720 C.3     1  UNL1        0.0221
      9 C           1.7048   29.5649    9.3570 C.2     1  UNL1       -0.0417
     10 C           1.4623   28.5669   10.2252 C.2     1  UNL1        0.0290
     11 C           2.5633   27.7568   10.7965 C.2     1  UNL1        0.1725
     12 O           2.3035   26.8560   11.5902 O.2     1  UNL1       -0.2914
     13 C           3.9585   28.0054   10.2857 C.3     1  UNL1        0.0695
     14 C           4.1543   29.4802    9.9742 C.3     1  UNL1        0.0121
     15 C           3.1064   30.0150    8.9699 C.3     1  UNL1        0.0188
     16 C           3.2348   31.5678    8.8506 C.3     1  UNL1        0.0037
     17 C           4.6046   31.9831    8.2623 C.3     1  UNL1        0.0004
     18 C           4.5054   32.9515    7.0827 C.3     1  UNL1        0.0032
     19 C           3.5505   32.4499    5.9593 C.3     1  UNL1        0.0333
     20 H           2.9822   35.5480    4.9828 H       1  UNL1        0.2114
     21 C           4.8964   33.9220    2.9350 C.1     1  UNL1       -0.0119
     22 C           4.1197   33.7823    3.8413 C.1     1  UNL1       -0.0526
     23 C           4.2338   31.2053    5.2797 C.3     1  UNL1        0.0032
     24 C           3.5906   30.6053    4.0336 C.3     1  UNL1        0.0001
@<TRIPOS>BOND
     1    21    22    3
     2    22     1    1
     3     1     3    1
     4     1    19    1
     5     1     2    1
     6     2    20    1
     7     3     4    1
     8     4     5    1
     9     5     6    1
    10     5    19    1
    11     6     7    1
    12     6    16    1
    13     7     8    1
    14     8     9    1
    15     9    10    2
    16     9    15    1
    17    10    11    1
    18    11    13    1
    19    11    12    2
    20    13    14    1
    21    14    15    1
    22    15    16    1
    23    16    17    1
    24    17    18    1
    25    18    19    1
    26    19    23    1
    27    23    24    1
#	Name:			CHEMBL2111238
#	Creating user name:	trannguyen
#	Creation time:		Tue Feb  8 18:26:14 2022


#	Modifying user name:	trannguyen
#	Modification time:	Tue Feb  8 18:26:14 2022

@<TRIPOS>MOLECULE
CHEMBL2111238
 31 34 0 0 0
SMALL
GASTEIGER

@<TRIPOS>ATOM
      1 C           3.7335   33.3570    6.8102 C.3     1  UNL1        0.0521
      2 C           4.5255   32.3989    7.6603 C.ar    1  UNL1        0.0593
      3 N           3.7778   31.4695    8.3086 N.ar    1  UNL1       -0.2497
      4 C           4.4008   30.5764    9.1042 C.ar    1  UNL1        0.0809
      5 C           5.7908   30.5833    9.2392 C.ar    1  UNL1        0.0191
      6 C           6.6061   31.5366    8.5849 C.ar    1  UNL1        0.0026
      7 C           5.9290   32.4918    7.7817 C.ar    1  UNL1        0.0134
      8 C           8.0981   31.4641    8.7782 C.ar    1  UNL1        0.0002
      9 C           8.7866   32.2498    9.7247 C.ar    1  UNL1        0.0023
     10 C          10.1703   32.1464    9.9212 C.ar    1  UNL1        0.0296
     11 C          10.9112   31.2832    9.1346 C.ar    1  UNL1        0.1401
     12 F          12.2350   31.1892    9.3140 F       1  UNL1       -0.2042
     13 C          10.2923   30.5240    8.1563 C.ar    1  UNL1        0.0296
     14 C           8.9024   30.6077    7.9888 C.ar    1  UNL1        0.0023
     15 C           3.5266   29.6076    9.8089 C.ar    1  UNL1        0.0176
     16 C           3.8946   28.2548    9.9444 C.ar    1  UNL1        0.0015
     17 C           3.0727   27.3333   10.6062 C.ar    1  UNL1        0.0000
     18 C           1.8574   27.7436   11.1460 C.ar    1  UNL1        0.0000
     19 C           1.4648   29.0719   11.0240 C.ar    1  UNL1        0.0000
     20 C           2.2881   29.9891   10.3611 C.ar    1  UNL1        0.0015
     21 C           6.6268   33.5685    7.0537 C.2     1  UNL1        0.0001
     22 C           7.1524   33.4926    5.8193 C.2     1  UNL1        0.0168
     23 C           7.2335   32.2721    4.9434 C.3     1  UNL1        0.1933
     24 C           5.9507   31.8334    4.2472 C.3     1  UNL1        0.0781
     25 C           5.5501   32.7443    3.0961 C.3     1  UNL1        0.1256
     26 O           4.5206   33.6260    3.5468 O.3     1  UNL1       -0.3837
     27 C           6.6858   33.5698    2.5293 C.3     1  UNL1        0.1388
     28 C           8.0467   32.9602    2.7499 C.2     1  UNL1        0.3197
     29 O           8.9127   33.0032    1.8952 O.2     1  UNL1       -0.2500
     30 O           8.2924   32.4493    3.9804 O.3     1  UNL1       -0.4475
     31 H           4.1067   34.0291    2.7621 H       1  UNL1        0.2104
@<TRIPOS>BOND
     1     1     2    1
     2     2     3   ar
     3     2     7   ar
     4     3     4   ar
     5     4    15    1
     6     4     5   ar
     7    15    16   ar
     8    15    20   ar
     9    16    17   ar
    10    17    18   ar
    11    18    19   ar
    12    19    20   ar
    13     5     6   ar
    14     6     8    1
    15     6     7   ar
    16     8     9   ar
    17     8    14   ar
    18     9    10   ar
    19    10    11   ar
    20    11    12    1
    21    11    13   ar
    22    13    14   ar
    23     7    21    1
    24    21    22    2
    25    22    23    1
    26    23    24    1
    27    23    30    1
    28    24    25    1
    29    25    27    1
    30    25    26    1
    31    26    31    1
    32    27    28    1
    33    28    29    2
    34    28    30    1
#	Name:			CHEMBL2111271
#	Creating user name:	trannguyen
#	Creation time:		Tue Feb  8 18:26:14 2022


#	Modifying user name:	trannguyen
#	Modification time:	Tue Feb  8 18:26:14 2022

@<TRIPOS>MOLECULE
CHEMBL2111271
 26 28 0 0 0
SMALL
GASTEIGER

@<TRIPOS>ATOM
      1 C           8.1742   34.1869    0.8802 C.3     1  UNL1        0.0521
      2 C           7.7465   33.6206    2.2001 C.ar    1  UNL1        0.0590
      3 C           6.3992   33.4766    2.5106 C.ar    1  UNL1        0.0147
      4 C           5.9813   33.0027    3.7756 C.ar    1  UNL1        0.0023
      5 C           7.0114   32.6610    4.6913 C.ar    1  UNL1        0.0134
      6 C           8.3582   32.8299    4.2865 C.ar    1  UNL1        0.0589
      7 C           9.5235   32.4974    5.1808 C.3     1  UNL1        0.0521
      8 N           8.7187   33.3052    3.0695 N.ar    1  UNL1       -0.2540
      9 C           4.5061   32.9128    4.0374 C.ar    1  UNL1        0.0002
     10 C           3.7625   34.0731    4.3663 C.ar    1  UNL1        0.0023
     11 C           2.3750   34.0443    4.5551 C.ar    1  UNL1        0.0296
     12 C           1.6996   32.8418    4.4460 C.ar    1  UNL1        0.1401
     13 F           0.3739   32.8058    4.6342 F       1  UNL1       -0.2042
     14 C           2.3856   31.6771    4.1361 C.ar    1  UNL1        0.0296
     15 C           3.7724   31.7170    3.9187 C.ar    1  UNL1        0.0023
     16 C           6.7654   32.1728    6.0608 C.2     1  UNL1        0.0001
     17 C           6.2191   32.9595    7.0007 C.2     1  UNL1        0.0168
     18 C           6.0776   32.5979    8.4575 C.3     1  UNL1        0.1933
     19 C           7.2453   31.7276    8.8965 C.3     1  UNL1        0.0781
     20 C           6.9245   31.0347   10.2032 C.3     1  UNL1        0.1256
     21 O           6.8020   31.9951   11.2460 O.3     1  UNL1       -0.3837
     22 C           5.6538   30.2290   10.0616 C.3     1  UNL1        0.1388
     23 C           4.5106   31.0163    9.4934 C.2     1  UNL1        0.3197
     24 O           3.3398   30.7115    9.7526 O.2     1  UNL1       -0.2500
     25 O           4.7917   31.9478    8.5645 O.3     1  UNL1       -0.4475
     26 H           6.7460   31.5155   12.0931 H       1  UNL1        0.2104
@<TRIPOS>BOND
     1     1     2    1
     2     2     3   ar
     3     2     8   ar
     4     3     4   ar
     5     4     9    1
     6     4     5   ar
     7     9    10   ar
     8     9    15   ar
     9    10    11   ar
    10    11    12   ar
    11    12    13    1
    12    12    14   ar
    13    14    15   ar
    14     5    16    1
    15     5     6   ar
    16    16    17    2
    17    18    19    1
    18    18    25    1
    19    18    17    1
    20    19    20    1
    21    20    22    1
    22    20    21    1
    23    21    26    1
    24    22    23    1
    25    23    24    2
    26    23    25    1
    27     6     7    1
    28     6     8   ar
#	Name:			CHEMBL211501
#	Creating user name:	trannguyen
#	Creation time:		Tue Feb  8 18:26:14 2022


#	Modifying user name:	trannguyen
#	Modification time:	Tue Feb  8 18:26:14 2022

@<TRIPOS>MOLECULE
CHEMBL211501
 42 43 0 0 0
SMALL
GASTEIGER

@<TRIPOS>ATOM
      1 C           7.4612   33.7201    5.2427 C.3     1  UNL1        0.1426
      2 C           8.0827   34.8841    4.4639 C.2     1  UNL1        0.3201
      3 O           8.8881   35.6734    4.9494 O.2     1  UNL1       -0.2500
      4 O           7.7135   34.9301    3.1653 O.3     1  UNL1       -0.4499
      5 C           8.7829   35.0850    2.2025 C.3     1  UNL1        0.1976
      6 C           8.6364   36.4428    1.5223 C.3     1  UNL1        0.0498
      7 C           8.7653   33.8401    1.2659 C.3     1  UNL1        0.2121
      8 C           7.4780   33.0259    1.4786 C.2     1  UNL1        0.3387
      9 O           6.5155   33.0441    0.7326 O.2     1  UNL1       -0.2481
     10 O           7.5651   32.3804    2.6821 O.3     1  UNL1       -0.4473
     11 C           6.3365   32.1178    3.3828 C.3     1  UNL1        0.2092
     12 C           6.3643   30.6552    3.8268 C.3     1  UNL1        0.0513
     13 C           6.1868   33.0905    4.6000 C.3     1  UNL1        0.2189
     14 N           8.9193   34.1099   -0.1618 N.am    1  UNL1       -0.2903
     15 C           9.6094   33.2370   -0.9836 C.2     1  UNL1        0.2493
     16 O          10.1699   32.2433   -0.5746 O.2     1  UNL1       -0.2700
     17 H           8.3022   34.8117   -0.5560 H       1  UNL1        0.1503
     18 C           9.5811   33.5523   -2.4414 C.ar    1  UNL1        0.0882
     19 C          10.7773   33.6942   -3.1492 C.ar    1  UNL1        0.0076
     20 C          10.7633   33.9240   -4.5225 C.ar    1  UNL1        0.0016
     21 C           9.5557   33.9329   -5.2187 C.ar    1  UNL1        0.0178
     22 C           8.3467   33.7641   -4.5391 C.ar    1  UNL1        0.0850
     23 C           8.3592   33.6346   -3.1371 C.ar    1  UNL1        0.1513
     24 O           7.1359   33.6577   -2.5087 O.3     1  UNL1       -0.5041
     25 H           7.2803   33.7353   -1.5438 H       1  UNL1        0.2923
     26 N           7.1028   33.7060   -5.1934 N.am    1  UNL1       -0.2743
     27 C           6.6132   34.5636   -6.1349 C.2     1  UNL1        0.3036
     28 O           5.5312   34.4254   -6.6824 O.2     1  UNL1       -0.2648
     29 H           6.5194   32.9000   -4.9796 H       1  UNL1        0.1554
     30 C           8.4930   32.6380    5.6436 C.3     1  UNL1        0.0149
     31 C           8.6273   32.3743    7.1493 C.3     1  UNL1        0.0007
     32 C           8.0645   30.9946    7.5341 C.3     1  UNL1        0.0000
     33 C           7.0888   31.0474    8.7190 C.3     1  UNL1        0.0000
     34 C           5.5069   32.9704    9.2241 C.3     1  UNL1        0.0000
     35 C           5.7510   31.7177    8.3957 C.3     1  UNL1        0.0000
     36 O           5.3115   34.1921    4.2468 O.3     1  UNL1       -0.4479
     37 C           3.9766   33.9831    4.4318 C.2     1  UNL1        0.3170
     38 O           3.1052   34.3178    3.6495 O.2     1  UNL1       -0.2501
     39 C           3.7355   33.2391    5.7260 C.3     1  UNL1        0.1096
     40 C           2.5843   32.2273    5.7044 C.3     1  UNL1        0.0111
     41 C           2.8215   31.0727    4.7324 C.3     1  UNL1        0.0006
     42 C           2.2393   31.7083    7.1000 C.3     1  UNL1        0.0006
@<TRIPOS>BOND
     1    34    35    1
     2    35    33    1
     3    33    32    1
     4    32    31    1
     5    31    30    1
     6    30     1    1
     7     1     2    1
     8     1    13    1
     9     2     3    2
    10     2     4    1
    11     4     5    1
    12     5     6    1
    13     5     7    1
    14     7    14    1
    15     7     8    1
    16    14    15   am
    17    14    17    1
    18    15    16    2
    19    15    18    1
    20    18    19   ar
    21    18    23   ar
    22    19    20   ar
    23    20    21   ar
    24    21    22   ar
    25    22    26    1
    26    22    23   ar
    27    26    27   am
    28    26    29    1
    29    27    28    2
    30    23    24    1
    31    24    25    1
    32     8     9    2
    33     8    10    1
    34    10    11    1
    35    11    13    1
    36    11    12    1
    37    13    36    1
    38    36    37    1
    39    37    38    2
    40    37    39    1
    41    39    40    1
    42    40    41    1
    43    40    42    1
#	Name:			CHEMBL21731
#	Creating user name:	trannguyen
#	Creation time:		Tue Feb  8 18:26:14 2022


#	Modifying user name:	trannguyen
#	Modification time:	Tue Feb  8 18:26:14 2022

@<TRIPOS>MOLECULE
CHEMBL21731
 22 25 0 0 0
SMALL
GASTEIGER

@<TRIPOS>ATOM
      1 C           2.3409   31.2916    8.5471 C.3     1  UNL1        0.0372
      2 C           3.5339   30.5209    9.2327 C.3     1  UNL1        0.0088
      3 C           4.8790   31.2953    9.0913 C.3     1  UNL1        0.0094
      4 C           4.6453   32.6227    8.3428 C.3     1  UNL1        0.0440
      5 C           3.5858   33.3668    9.1479 C.ar    1  UNL1       -0.0221
      6 C           3.7783   34.6071    9.7508 C.ar    1  UNL1       -0.0043
      7 C           2.7185   35.1832   10.4520 C.ar    1  UNL1       -0.0003
      8 C           1.4851   34.5294   10.5373 C.ar    1  UNL1       -0.0003
      9 C           1.2894   33.2785    9.9400 C.ar    1  UNL1       -0.0043
     10 C           2.3440   32.6795    9.2530 C.ar    1  UNL1       -0.0227
     11 C           4.0369   32.2351    6.9986 C.ar    1  UNL1       -0.0221
     12 C           4.6157   32.5130    5.7626 C.ar    1  UNL1       -0.0043
     13 C           3.9478   32.1133    4.6044 C.ar    1  UNL1       -0.0003
     14 C           2.7037   31.4855    4.6831 C.ar    1  UNL1       -0.0003
     15 C           2.1107   31.2270    5.9225 C.ar    1  UNL1       -0.0043
     16 C           2.7942   31.5552    7.0922 C.ar    1  UNL1       -0.0227
     17 C           1.0069   30.5108    8.7173 C.3     1  UNL1        0.0095
     18 C           1.1019   29.0814    9.2936 C.3     1  UNL1        0.0177
     19 C          -0.0632   28.7859   10.2510 C.3     1  UNL1        0.0686
     20 C           1.8586   27.9247   11.4328 C.3     1  UNL1        0.0859
     21 N           0.4026   27.9639   11.3708 N.3     1  UNL1       -0.2963
     22 H           0.0414   28.3431   12.2462 H       1  UNL1        0.1233
@<TRIPOS>BOND
     1    20    21    1
     2    21    19    1
     3    21    22    1
     4    19    18    1
     5    18    17    1
     6    17     1    1
     7     1     2    1
     8     1    10    1
     9     1    16    1
    10     2     3    1
    11     3     4    1
    12     4     5    1
    13     4    11    1
    14     5     6   ar
    15     5    10   ar
    16     6     7   ar
    17     7     8   ar
    18     8     9   ar
    19     9    10   ar
    20    11    12   ar
    21    11    16   ar
    22    12    13   ar
    23    13    14   ar
    24    14    15   ar
    25    15    16   ar
#	Name:			CHEMBL219916
#	Creating user name:	trannguyen
#	Creation time:		Tue Feb  8 18:26:14 2022


#	Modifying user name:	trannguyen
#	Modification time:	Tue Feb  8 18:26:14 2022

@<TRIPOS>MOLECULE
CHEMBL219916
 32 36 0 0 0
SMALL
GASTEIGER

@<TRIPOS>ATOM
      1 N           4.4607   32.4058    4.2062 N.3     1  UNL1       -0.2725
      2 C           4.7549   33.6408    3.4561 C.3     1  UNL1        0.0740
      3 C           6.2074   34.0969    3.5443 C.3     1  UNL1        0.0401
      4 C           7.2175   32.9928    3.2253 C.3     1  UNL1        0.0926
      5 C           6.9013   31.7681    4.0807 C.3     1  UNL1        0.0401
      6 C           5.4447   31.3304    3.9765 C.3     1  UNL1        0.0740
      7 N           7.3889   32.7056    1.7917 N.ar    1  UNL1       -0.2819
      8 C           7.4755   31.4504    1.1387 C.ar    1  UNL1        0.3282
      9 O           7.4742   30.3148    1.5918 O.2     1  UNL1       -0.2465
     10 N           7.5892   31.6996   -0.2292 N.ar    1  UNL1       -0.3054
     11 H           7.6645   30.9656   -0.9139 H       1  UNL1        0.1705
     12 C           7.6247   33.0634   -0.4417 C.ar    1  UNL1        0.0769
     13 C           7.7571   33.7277   -1.6386 C.ar    1  UNL1        0.0299
     14 C           7.7967   35.1170   -1.5690 C.ar    1  UNL1        0.0592
     15 CL          7.9576   36.0273   -3.0215 Cl      1  UNL1       -0.0822
     16 C           7.7121   35.7897   -0.3326 C.ar    1  UNL1        0.0130
     17 C           7.5691   35.0801    0.8709 C.ar    1  UNL1        0.0196
     18 C           7.5194   33.7039    0.7951 C.ar    1  UNL1        0.0794
     19 C           3.1202   31.8902    3.8341 C.3     1  UNL1        0.0741
     20 C           2.1848   31.5565    5.0063 C.3     1  UNL1        0.0419
     21 C           2.4632   32.4382    6.2227 C.3     1  UNL1        0.1120
     22 O           0.8001   30.6551    7.9613 O.2     1  UNL1       -0.2465
     23 C           1.9869   30.8669    8.1453 C.ar    1  UNL1        0.3283
     24 N           2.7571   30.3240    9.1862 N.ar    1  UNL1       -0.3054
     25 H           2.3865   29.7065    9.8885 H       1  UNL1        0.1705
     26 C           4.0633   30.7820    9.0699 C.ar    1  UNL1        0.0761
     27 C           5.1531   30.4936    9.8598 C.ar    1  UNL1        0.0186
     28 C           6.3644   31.0917    9.5024 C.ar    1  UNL1        0.0016
     29 C           6.4421   31.9669    8.3975 C.ar    1  UNL1        0.0016
     30 C           5.3129   32.2549    7.6179 C.ar    1  UNL1        0.0188
     31 C           4.1333   31.6333    7.9649 C.ar    1  UNL1        0.0795
     32 N           2.8540   31.6848    7.3901 N.ar    1  UNL1       -0.2801
@<TRIPOS>BOND
     1    22    23    2
     2    23    24   ar
     3    23    32   ar
     4    24    25    1
     5    24    26   ar
     6    26    27   ar
     7    26    31   ar
     8    27    28   ar
     9    28    29   ar
    10    29    30   ar
    11    30    31   ar
    12    31    32   ar
    13    32    21    1
    14    21    20    1
    15    20    19    1
    16    19     1    1
    17     1     2    1
    18     1     6    1
    19     2     3    1
    20     3     4    1
    21     4     7    1
    22     4     5    1
    23     7     8   ar
    24     7    18   ar
    25     8     9    2
    26     8    10   ar
    27    10    11    1
    28    10    12   ar
    29    12    13   ar
    30    12    18   ar
    31    13    14   ar
    32    14    15    1
    33    14    16   ar
    34    16    17   ar
    35    17    18   ar
    36     5     6    1
#	Name:			CHEMBL21
#	Creating user name:	trannguyen
#	Creation time:		Tue Feb  8 18:26:14 2022


#	Modifying user name:	trannguyen
#	Modification time:	Tue Feb  8 18:26:14 2022

@<TRIPOS>MOLECULE
CHEMBL21
 15 15 0 0 0
SMALL
GASTEIGER

@<TRIPOS>ATOM
      1 N           4.4094   32.2170    8.0107 N.pl3   1  UNL1       -0.3570
      2 C           3.8082   31.2414    8.8143 C.ar    1  UNL1        0.0416
      3 C           2.4437   30.9633    8.6792 C.ar    1  UNL1        0.0155
      4 C           1.8544   29.9086    9.3821 C.ar    1  UNL1        0.0211
      5 C           2.6491   29.0972   10.1923 C.ar    1  UNL1        0.1218
      6 C           4.0224   29.3268   10.2965 C.ar    1  UNL1        0.0211
      7 C           4.5985   30.3830    9.5859 C.ar    1  UNL1        0.0155
      8 H           3.7834   32.9714    7.7453 H       1  UNL1        0.1424
      9 H           5.2900   32.5646    8.3778 H       1  UNL1        0.1424
     10 S           1.9254   27.7639   11.0974 S.O2    1  UNL1        0.0572
     11 N           0.2878   27.9555   10.7758 N.3     1  UNL1       -0.2035
     12 O           2.3154   26.5187   10.4803 O.2     1  UNL1       -0.1532
     13 O           2.0679   28.0092   12.5141 O.2     1  UNL1       -0.1532
     14 H          -0.0676   27.1294   10.2936 H       1  UNL1        0.1442
     15 H          -0.2087   28.1742   11.6396 H       1  UNL1        0.1442
@<TRIPOS>BOND
     1     1     2    1
     2     1     8    1
     3     1     9    1
     4     2     3   ar
     5     2     7   ar
     6     3     4   ar
     7     4     5   ar
     8     5    10    1
     9     5     6   ar
    10    10    11    1
    11    10    12    2
    12    10    13    2
    13    11    14    1
    14    11    15    1
    15     6     7   ar
#	Name:			CHEMBL2203595
#	Creating user name:	trannguyen
#	Creation time:		Tue Feb  8 18:26:14 2022


#	Modifying user name:	trannguyen
#	Modification time:	Tue Feb  8 18:26:14 2022

@<TRIPOS>MOLECULE
CHEMBL2203595
 36 39 0 0 0
SMALL
GASTEIGER

@<TRIPOS>ATOM
      1 C           5.1142   32.9273    8.4206 C.3     1  UNL1        0.0031
      2 C           5.1354   32.6419    9.9479 C.3     1  UNL1        0.0296
      3 C           6.5972   32.4516   10.3648 C.3     1  UNL1        0.1141
      4 O           6.7694   32.8545   11.7155 O.3     1  UNL1       -0.3841
      5 C           7.4133   33.2794    9.3401 C.3     1  UNL1        0.0433
      6 C           7.2764   34.8022    9.6537 C.3     1  UNL1        0.0068
      7 C           8.9184   32.8734    9.3446 C.2     1  UNL1       -0.0291
      8 C           9.7876   33.3942   10.2342 C.2     1  UNL1       -0.0306
      9 C          11.2530   33.1138   10.2805 C.3     1  UNL1        0.0264
     10 C          11.8411   32.6402    8.9413 C.3     1  UNL1        0.0146
     11 C          12.2998   33.7843    7.9638 C.3     1  UNL1        0.0521
     12 C          11.1665   34.6751    7.4394 C.3     1  UNL1        0.0074
     13 C          13.3556   34.6890    8.6385 C.3     1  UNL1        0.0074
     14 C          12.9912   33.1423    6.7463 C.2     1  UNL1        0.1499
     15 O          13.6913   33.7927    5.9682 O.2     1  UNL1       -0.2961
     16 C          12.8037   31.6593    6.5375 C.3     1  UNL1        0.0648
     17 C          11.3513   31.3087    6.8034 C.3     1  UNL1        0.0118
     18 C          10.9144   31.5510    8.2861 C.3     1  UNL1        0.0194
     19 C          11.1115   30.2177    9.0617 C.3     1  UNL1        0.0044
     20 C           9.4025   31.8917    8.3642 C.2     1  UNL1       -0.0312
     21 C           8.5251   31.2468    7.5745 C.2     1  UNL1       -0.0307
     22 C           7.0559   31.4765    7.5536 C.3     1  UNL1        0.0261
     23 C           6.6409   32.8963    8.0055 C.3     1  UNL1        0.0097
     24 C           6.9413   33.9132    6.8796 C.3     1  UNL1        0.0007
     25 H           7.6881   32.6379   11.9537 H       1  UNL1        0.2103
     26 C           4.0809   32.0181    7.6608 C.3     1  UNL1        0.0004
     27 C           3.6889   32.5732    6.2837 C.3     1  UNL1        0.0000
     28 C           2.7841   31.8164    8.5062 C.3     1  UNL1        0.0047
     29 C           1.9095   30.6354    8.0494 C.3     1  UNL1        0.0259
     30 C           3.5939   28.8415    9.9626 C.3     1  UNL1        0.0375
     31 C           2.1017   29.0484   10.0468 C.2     1  UNL1        0.0493
     32 C           1.3820   29.8235    9.2090 C.2     1  UNL1       -0.0240
     33 C           1.5011   28.3271   11.2141 C.2     1  UNL1        0.3337
     34 O           2.1372   28.0557   12.2206 O.2     1  UNL1       -0.2455
     35 O           0.2205   27.9640   11.0549 O.3     1  UNL1       -0.4773
     36 H          -0.1474   28.0838   10.1700 H       1  UNL1        0.2954
@<TRIPOS>BOND
     1    30    31    1
     2    31    32    2
     3    31    33    1
     4    32    29    1
     5    29    28    1
     6    28    26    1
     7    26    27    1
     8     1     2    1
     9     1    23    1
    10     1    26    1
    11     2     3    1
    12     3     5    1
    13     3     4    1
    14     4    25    1
    15     5     7    1
    16     5    23    1
    17     5     6    1
    18     7     8    2
    19     7    20    1
    20     8     9    1
    21     9    10    1
    22    10    11    1
    23    10    18    1
    24    11    14    1
    25    11    12    1
    26    11    13    1
    27    14    16    1
    28    14    15    2
    29    16    17    1
    30    17    18    1
    31    18    20    1
    32    18    19    1
    33    20    21    2
    34    21    22    1
    35    22    23    1
    36    23    24    1
    37    33    34    2
    38    33    35    1
    39    35    36    1
#	Name:			CHEMBL2203597
#	Creating user name:	trannguyen
#	Creation time:		Tue Feb  8 18:26:14 2022


#	Modifying user name:	trannguyen
#	Modification time:	Tue Feb  8 18:26:14 2022

@<TRIPOS>MOLECULE
CHEMBL2203597
 36 39 0 0 0
SMALL
GASTEIGER

@<TRIPOS>ATOM
      1 C           5.1462   32.5161    8.2645 C.3     1  UNL1        0.0003
      2 C           5.0819   33.6845    9.2490 C.3     1  UNL1        0.0003
      3 C           6.5322   34.1480    9.2859 C.3     1  UNL1        0.0041
      4 C           7.3585   32.8538    9.4798 C.3     1  UNL1        0.0210
      5 C           7.5119   32.6316   11.0141 C.3     1  UNL1        0.0044
      6 C           8.8036   32.9315    8.9456 C.2     1  UNL1        0.0040
      7 C           9.4270   31.9111    8.3090 C.2     1  UNL1       -0.0461
      8 C           8.5921   30.7392    7.8413 C.3     1  UNL1        0.0218
      9 C           7.1699   31.1681    7.5244 C.3     1  UNL1        0.0046
     10 C           6.4372   31.7357    8.7609 C.3     1  UNL1        0.0038
     11 C           6.0821   30.5779    9.7236 C.3     1  UNL1        0.0003
     12 C          10.9665   31.8073    8.0710 C.3     1  UNL1        0.0155
     13 C          11.3903   30.4665    8.7286 C.3     1  UNL1        0.0040
     14 C          11.2694   31.7670    6.5508 C.3     1  UNL1        0.0062
     15 C          12.7608   31.8058    6.2126 C.3     1  UNL1        0.0295
     16 C          13.4586   33.0307    6.7995 C.3     1  UNL1        0.1104
     17 O          12.9421   34.1855    6.1372 O.3     1  UNL1       -0.3845
     18 C          13.2691   33.1660    8.3332 C.3     1  UNL1        0.0255
     19 C          14.1541   32.1172    9.0584 C.3     1  UNL1        0.0024
     20 C          13.8361   34.5362    8.7987 C.3     1  UNL1        0.0024
     21 C          11.7441   33.0071    8.7448 C.3     1  UNL1        0.0133
     22 C          10.9331   34.2949    8.5199 C.3     1  UNL1        0.0692
     23 C           9.6006   34.1707    9.2071 C.2     1  UNL1        0.1685
     24 O           9.1674   35.0846    9.9048 O.2     1  UNL1       -0.2917
     25 H          13.1965   34.1253    5.1998 H       1  UNL1        0.2103
     26 C           3.7863   31.7628    8.0706 C.3     1  UNL1        0.0003
     27 C           3.2083   31.9885    6.6652 C.3     1  UNL1        0.0000
     28 C           2.7397   32.2319    9.1319 C.3     1  UNL1        0.0047
     29 C           1.5587   31.2689    9.3736 C.3     1  UNL1        0.0259
     30 C          -0.1941   28.7562   10.1785 C.3     1  UNL1        0.0375
     31 C           1.2803   28.9197   10.4100 C.2     1  UNL1        0.0493
     32 C           2.0061   30.0199   10.0973 C.2     1  UNL1       -0.0240
     33 C           1.8936   27.7393   11.1052 C.2     1  UNL1        0.3337
     34 O           1.9924   27.6621   12.3160 O.2     1  UNL1       -0.2455
     35 O           2.2605   26.7328   10.2841 O.3     1  UNL1       -0.4773
     36 H           1.9808   26.8333    9.3589 H       1  UNL1        0.2954
@<TRIPOS>BOND
     1    30    31    1
     2    31    32    2
     3    31    33    1
     4    32    29    1
     5    29    28    1
     6    28    26    1
     7    26    27    1
     8    26     1    1
     9     1     2    1
    10     1    10    1
    11     2     3    1
    12     3     4    1
    13     4     6    1
    14     4    10    1
    15     4     5    1
    16     6     7    2
    17     6    23    1
    18     7     8    1
    19     7    12    1
    20     8     9    1
    21     9    10    1
    22    10    11    1
    23    12    14    1
    24    12    21    1
    25    12    13    1
    26    14    15    1
    27    15    16    1
    28    16    18    1
    29    16    17    1
    30    17    25    1
    31    18    21    1
    32    18    19    1
    33    18    20    1
    34    21    22    1
    35    22    23    1
    36    23    24    2
    37    33    34    2
    38    33    35    1
    39    35    36    1
#	Name:			CHEMBL221753
#	Creating user name:	trannguyen
#	Creation time:		Tue Feb  8 18:26:14 2022


#	Modifying user name:	trannguyen
#	Modification time:	Tue Feb  8 18:26:14 2022

@<TRIPOS>MOLECULE
CHEMBL221753
 30 31 0 0 0
SMALL
GASTEIGER

@<TRIPOS>ATOM
      1 O           4.3929   32.6426    4.4455 O.3     1  UNL1       -0.4727
      2 C           2.4495   31.7192    8.0709 C.ar    1  UNL1       -0.0226
      3 C           3.5684   32.5788    8.0040 C.ar    1  UNL1       -0.0012
      4 C           4.1779   32.8879    6.7772 C.ar    1  UNL1        0.0366
      5 C           3.6951   32.3612    5.5952 C.ar    1  UNL1        0.1387
      6 C           2.5422   31.5609    5.6395 C.ar    1  UNL1        0.0366
      7 C           1.9510   31.2325    6.8603 C.ar    1  UNL1       -0.0012
      8 C           1.7716   31.2833    9.4044 C.3     1  UNL1        0.0189
      9 C           0.4457   30.5408    9.1453 C.3     1  UNL1        0.0044
     10 C           1.4195   32.5867   10.1545 C.3     1  UNL1        0.0044
     11 C           2.7800   30.3521   10.1702 C.3     1  UNL1        0.0040
     12 C           2.0327   28.3822   11.5197 C.3     1  UNL1        0.0000
     13 C           2.7103   28.7875   10.1840 C.3     1  UNL1        0.0003
     14 C           4.0642   28.0702   10.1140 C.3     1  UNL1        0.0000
     15 C           1.8152   28.2593    9.0651 C.3     1  UNL1        0.0000
     16 C           5.2600   31.6145    3.9406 C.3     1  UNL1        0.2373
     17 C           6.6712   31.7631    4.5187 C.3     1  UNL1        0.1896
     18 O           7.5565   32.5431    3.6964 O.3     1  UNL1       -0.3436
     19 C           8.8342   32.8094    4.2725 C.3     1  UNL1        0.2030
     20 C           8.7603   32.7887    5.8159 C.3     1  UNL1        0.1420
     21 N          10.1154   32.5776    6.5469 N.4     1  UNL1        0.3114
     22 C          11.1682   32.1830    5.5123 C.3     1  UNL1        0.1712
     23 C          10.5984   33.8820    7.1866 C.3     1  UNL1        0.1712
     24 C          10.0204   31.5055    7.6614 C.3     1  UNL1        0.1366
     25 C           8.7838   31.5459    8.5291 C.ar    1  UNL1        0.0328
     26 C           7.6452   30.7945    8.2026 C.ar    1  UNL1        0.0014
     27 C           6.5062   30.8286    9.0084 C.ar    1  UNL1       -0.0001
     28 C           6.4859   31.6191   10.1517 C.ar    1  UNL1       -0.0000
     29 C           7.6009   32.3834   10.4855 C.ar    1  UNL1       -0.0001
     30 C           8.7390   32.3543    9.6768 C.ar    1  UNL1        0.0014
@<TRIPOS>UNITY_ATOM_ATTR
21 1
charge 1
@<TRIPOS>BOND
     1    12    13    1
     2    13    14    1
     3    13    15    1
     4    13    11    1
     5    11     8    1
     6     8     9    1
     7     8    10    1
     8     8     2    1
     9     2     3   ar
    10     2     7   ar
    11     3     4   ar
    12     4     5   ar
    13     5     1    1
    14     5     6   ar
    15     1    16    1
    16    16    17    1
    17    17    18    1
    18    18    19    1
    19    19    20    1
    20    20    21    1
    21    21    22    1
    22    21    23    1
    23    21    24    1
    24    24    25    1
    25    25    26   ar
    26    25    30   ar
    27    26    27   ar
    28    27    28   ar
    29    28    29   ar
    30    29    30   ar
    31     6     7   ar
#	Name:			CHEMBL221886
#	Creating user name:	trannguyen
#	Creation time:		Tue Feb  8 18:26:14 2022


#	Modifying user name:	trannguyen
#	Modification time:	Tue Feb  8 18:26:14 2022

@<TRIPOS>MOLECULE
CHEMBL221886
 43 45 0 0 0
SMALL
GASTEIGER

@<TRIPOS>ATOM
      1 C           1.9841   31.3138    5.2625 C.3     1  UNL1        0.1610
      2 C           3.0776   31.2374    4.1400 C.3     1  UNL1        0.1673
      3 O           2.3816   31.3206    2.8707 O.3     1  UNL1       -0.3795
      4 C           4.1634   32.3527    4.1320 C.3     1  UNL1        0.1620
      5 C           3.6468   33.5369    4.9247 C.3     1  UNL1        0.0824
      6 N           4.1128   34.7151    4.1928 N.3     1  UNL1       -0.3202
      7 C           2.1884   33.8512    4.9616 C.3     1  UNL1        0.0361
      8 C           1.3506   32.7180    5.4805 C.3     1  UNL1        0.0824
      9 N           0.0820   32.8950    4.7467 N.3     1  UNL1       -0.3202
     10 H           1.7268   32.0450    2.9365 H       1  UNL1        0.2105
     11 H           5.0825   34.5598    3.9270 H       1  UNL1        0.1189
     12 H           4.0278   35.5663    4.7429 H       1  UNL1        0.1189
     13 H          -0.6099   32.2256    5.0718 H       1  UNL1        0.1189
     14 H          -0.2915   33.8284    4.9314 H       1  UNL1        0.1189
     15 O           2.3473   30.7435    6.5402 O.3     1  UNL1       -0.3272
     16 C           3.5163   30.4830    9.3379 C.3     1  UNL1        0.1136
     17 C           2.9577   31.8107    8.7637 C.3     1  UNL1        0.1836
     18 O           4.0410   32.6382    8.3105 O.3     1  UNL1       -0.3783
     19 C           1.8962   31.5017    7.6830 C.3     1  UNL1        0.2646
     20 O           0.7884   30.8636    8.3296 O.3     1  UNL1       -0.3261
     21 C           1.0986   29.6834    9.0776 C.3     1  UNL1        0.1729
     22 C           2.3350   29.7459   10.0205 C.3     1  UNL1        0.1312
     23 C           2.6592   28.3156   10.4625 C.3     1  UNL1        0.0334
     24 O           1.9989   30.4790   11.2147 O.3     1  UNL1       -0.3829
     25 H           3.9466   33.5045    8.7418 H       1  UNL1        0.2106
     26 H           2.8607   30.7573   11.5929 H       1  UNL1        0.2104
     27 C           5.8382   30.0744   10.1641 C.3     1  UNL1        0.0860
     28 N           4.6434   30.8963   10.2276 N.3     1  UNL1       -0.2933
     29 H           4.8966   31.8361    9.8883 H       1  UNL1        0.1234
     30 O           5.4656   31.9387    4.6330 O.3     1  UNL1       -0.3181
     31 C           6.7030   32.3605    3.9513 C.3     1  UNL1        0.3022
     32 O           6.6136   32.4853    2.5066 O.2     1  UNL1       -0.4547
     33 C           7.8223   32.9138    1.9030 C.2     1  UNL1        0.1303
     34 C           8.8267   33.4357    2.5563 C.2     1  UNL1        0.0093
     35 C           8.8949   33.6540    4.0515 C.3     1  UNL1        0.0508
     36 C           7.4959   33.5646    4.6350 C.3     1  UNL1        0.1264
     37 N           7.1757   34.9987    4.4618 N.3     1  UNL1       -0.3169
     38 H           6.9748   35.1783    3.4739 H       1  UNL1        0.1190
     39 H           6.3681   35.2179    5.0199 H       1  UNL1        0.1190
     40 C           7.9283   32.6689    0.3967 C.3     1  UNL1        0.1298
     41 N           7.6262   31.3142   -0.0297 N.3     1  UNL1       -0.3149
     42 H           8.3070   30.6815    0.3921 H       1  UNL1        0.1192
     43 H           6.7126   31.0381    0.3224 H       1  UNL1        0.1192
@<TRIPOS>BOND
     1    27    28    1
     2    28    29    1
     3    16    17    1
     4    16    22    1
     5    16    28    1
     6    17    18    1
     7    17    19    1
     8    18    25    1
     9    19    20    1
    10    19    15    1
    11     1     2    1
    12     1     8    1
    13     1    15    1
    14     2     3    1
    15     2     4    1
    16     3    10    1
    17     4    30    1
    18     4     5    1
    19    30    31    1
    20    31    32    1
    21    31    36    1
    22    32    33    1
    23    33    40    1
    24    33    34    2
    25    40    41    1
    26    41    42    1
    27    41    43    1
    28    34    35    1
    29    35    36    1
    30    36    37    1
    31    37    38    1
    32    37    39    1
    33     5     7    1
    34     5     6    1
    35     6    11    1
    36     6    12    1
    37     7     8    1
    38     8     9    1
    39     9    13    1
    40     9    14    1
    41    20    21    1
    42    21    22    1
    43    22    23    1
    44    22    24    1
    45    24    26    1
#	Name:			CHEMBL2220427
#	Creating user name:	trannguyen
#	Creation time:		Tue Feb  8 18:26:14 2022


#	Modifying user name:	trannguyen
#	Modification time:	Tue Feb  8 18:26:14 2022

@<TRIPOS>MOLECULE
CHEMBL2220427
 59 61 0 0 0
SMALL
GASTEIGER

@<TRIPOS>ATOM
      1 C           7.9095   33.6577    9.8907 C.3     1  UNL1        0.1445
      2 C           7.8778   35.2671    9.7138 C.3     1  UNL1        0.0575
      3 C           7.0529   35.8577   10.8806 C.3     1  UNL1        0.0051
      4 C           9.0503   36.2749    9.4161 C.3     1  UNL1        0.1306
      5 C           9.9128   35.6208    8.3604 C.3     1  UNL1        0.1263
      6 C           9.3751   35.7030    6.9403 C.3     1  UNL1        0.0142
      7 C          11.3882   35.7050    8.6043 C.2     1  UNL1        0.3188
      8 O          11.8129   35.7887    9.7563 O.2     1  UNL1       -0.2500
      9 O          12.0867   35.3086    7.5100 O.3     1  UNL1       -0.4497
     10 C          13.2671   34.5201    7.7975 C.3     1  UNL1        0.1953
     11 C          13.5104   33.4481    6.6523 C.3     1  UNL1        0.1497
     12 C          12.3041   33.1285    5.7534 C.3     1  UNL1        0.0356
     13 O          14.4896   33.9880    5.7120 O.3     1  UNL1       -0.3808
     14 C          14.1558   32.1210    7.1960 C.3     1  UNL1        0.1451
     15 O          14.7389   31.4497    6.0489 O.3     1  UNL1       -0.3815
     16 C          13.2409   31.0761    7.9048 C.3     1  UNL1        0.0869
     17 C          14.0540   29.7887    8.1600 C.3     1  UNL1        0.0104
     18 C          12.6760   31.5456    9.2500 C.2     1  UNL1        0.1523
     19 O          13.3922   32.2083   10.0090 O.2     1  UNL1       -0.2960
     20 C          11.2660   31.1074    9.7305 C.3     1  UNL1        0.0601
     21 C          10.7143   29.8918    8.9911 C.3     1  UNL1        0.0078
     22 C          10.2785   32.3136   10.0448 C.3     1  UNL1        0.0366
     23 C           8.9135   32.5049    9.2579 C.3     1  UNL1        0.1137
     24 C           9.1493   32.5913    7.7500 C.3     1  UNL1        0.0318
     25 O           8.2593   31.2336    9.4628 O.3     1  UNL1       -0.3844
     26 H          14.0656   34.7399    5.2581 H       1  UNL1        0.2105
     27 H          15.1627   32.1696    5.5342 H       1  UNL1        0.2105
     28 H           7.3384   31.3190    9.1707 H       1  UNL1        0.2103
     29 C          14.4846   35.4515    8.0065 C.3     1  UNL1        0.0462
     30 C          15.5175   34.9651    9.0170 C.3     1  UNL1        0.0039
     31 O           6.4903   33.2003    9.7878 O.3     1  UNL1       -0.3278
     32 C           5.1315   32.1791    7.9856 C.3     1  UNL1        0.2391
     33 C           5.6906   33.4814    8.6173 C.3     1  UNL1        0.2782
     34 O           4.6971   34.4847    8.7732 O.3     1  UNL1       -0.3303
     35 C           3.3656   34.1639    9.1443 C.3     1  UNL1        0.1194
     36 C           2.9220   34.6567   10.5241 C.3     1  UNL1        0.0322
     37 C           2.8551   32.7492    8.9090 C.3     1  UNL1        0.0494
     38 C           3.8766   31.6116    8.7160 C.3     1  UNL1        0.1056
     39 N           4.0668   30.7878    9.9457 N.3     1  UNL1       -0.2682
     40 C           2.8705   29.9751   10.2514 C.3     1  UNL1        0.0897
     41 C           5.1897   29.8432    9.8185 C.3     1  UNL1        0.0897
     42 O           4.6549   32.4143    6.6106 O.3     1  UNL1       -0.4455
     43 C           5.5783   32.8656    5.7301 C.2     1  UNL1        0.3171
     44 O           5.6971   33.9928    5.3643 O.2     1  UNL1       -0.2501
     45 C           6.5587   31.3817    3.9141 C.3     1  UNL1        0.0122
     46 C           6.5286   31.7127    5.3865 C.3     1  UNL1        0.1096
     47 O           8.4772   37.5476    8.9207 O.3     1  UNL1       -0.3323
     48 C           9.3919   38.6532    8.8592 C.3     1  UNL1        0.2375
     49 C           9.1117   39.7182    7.7666 C.3     1  UNL1        0.0910
     50 C           8.0027   40.7425    8.1023 C.3     1  UNL1        0.1246
     51 C           8.0878   41.9890    7.1869 C.3     1  UNL1        0.0324
     52 C           8.1807   41.2117    9.5747 C.3     1  UNL1        0.1623
     53 O           7.0453   41.9844    9.9810 O.3     1  UNL1       -0.3796
     54 C           8.3817   40.0065   10.5058 C.3     1  UNL1        0.1468
     55 C           8.6259   40.4297   11.9451 C.3     1  UNL1        0.0348
     56 O           9.5465   39.2777   10.1166 O.3     1  UNL1       -0.3304
     57 H           6.2720   41.5105    9.6134 H       1  UNL1        0.2105
     58 O           6.6783   40.1708    8.0238 O.3     1  UNL1       -0.3532
     59 C           6.2730   39.6600    6.7607 C.3     1  UNL1        0.1740
@<TRIPOS>BOND
     1    45    46    1
     2    46    43    1
     3    43    44    2
     4    43    42    1
     5    32    33    1
     6    32    38    1
     7    32    42    1
     8    33    34    1
     9    33    31    1
    10     1     2    1
    11     1    23    1
    12     1    31    1
    13     2     3    1
    14     2     4    1
    15     4    47    1
    16     4     5    1
    17    47    48    1
    18    48    49    1
    19    48    56    1
    20    49    50    1
    21    50    52    1
    22    50    58    1
    23    50    51    1
    24    58    59    1
    25    52    54    1
    26    52    53    1
    27    53    57    1
    28    54    55    1
    29    54    56    1
    30     5     7    1
    31     5     6    1
    32     7     8    2
    33     7     9    1
    34     9    10    1
    35    10    29    1
    36    10    11    1
    37    29    30    1
    38    11    14    1
    39    11    13    1
    40    11    12    1
    41    13    26    1
    42    14    15    1
    43    14    16    1
    44    15    27    1
    45    16    18    1
    46    16    17    1
    47    18    19    2
    48    18    20    1
    49    20    21    1
    50    20    22    1
    51    22    23    1
    52    23    25    1
    53    23    24    1
    54    25    28    1
    55    34    35    1
    56    35    36    1
    57    35    37    1
    58    37    38    1
    59    38    39    1
    60    39    40    1
    61    39    41    1
#	Name:			CHEMBL2221249
#	Creating user name:	trannguyen
#	Creation time:		Tue Feb  8 18:26:14 2022


#	Modifying user name:	trannguyen
#	Modification time:	Tue Feb  8 18:26:14 2022

@<TRIPOS>MOLECULE
CHEMBL2221249
 104 104 0 0 0
SMALL
GASTEIGER

@<TRIPOS>ATOM
      1 C           8.7872   33.2819   -3.9402 C.3     1  UNL1        0.1503
      2 C           7.6200   33.4382   -4.8938 C.3     1  UNL1        0.0502
      3 C           7.1534   34.8769   -4.9941 C.3     1  UNL1        0.0917
      4 N           7.9278   36.0508   -5.2066 N.am    1  UNL1       -0.3029
      5 C           8.4384   36.3909   -6.3718 C.2     1  UNL1        0.2428
      6 O           9.4013   37.1179   -6.2652 O.2     1  UNL1       -0.2732
      7 C           7.6228   36.2311   -7.6493 C.3     1  UNL1        0.1757
      8 N           7.5121   37.6576   -7.9151 N.am    1  UNL1       -0.2951
      9 C           6.3249   38.3812   -7.8760 C.2     1  UNL1        0.2407
     10 O           5.3960   38.1139   -8.6321 O.2     1  UNL1       -0.2733
     11 C           6.2208   39.3458   -6.6540 C.3     1  UNL1        0.1500
     12 N           7.1070   40.5330   -6.6724 N.am    1  UNL1       -0.2970
     13 C           8.4680   40.3501   -6.7702 C.2     1  UNL1        0.2407
     14 O           8.8315   39.3144   -7.3058 O.2     1  UNL1       -0.2733
     15 C           9.4781   41.3267   -6.1859 C.3     1  UNL1        0.1500
     16 N           9.3196   41.2621   -4.7495 N.am    1  UNL1       -0.2970
     17 C           9.4445   42.3511   -3.8935 C.2     1  UNL1        0.2406
     18 O           9.7778   43.4820   -4.2298 O.2     1  UNL1       -0.2733
     19 C           8.8045   41.9479   -2.5535 C.3     1  UNL1        0.1486
     20 N           9.0932   40.4557   -2.4411 N.am    1  UNL1       -0.2970
     21 C          10.2759   39.9393   -1.8984 C.2     1  UNL1        0.2406
     22 O          10.1316   39.2477   -0.8874 O.2     1  UNL1       -0.2733
     23 C          11.6658   39.9506   -2.6874 C.3     1  UNL1        0.1486
     24 N          11.8515   38.5001   -3.0555 N.am    1  UNL1       -0.2970
     25 C          10.9121   37.6038   -3.6120 C.2     1  UNL1        0.2407
     26 O           9.7497   37.9788   -3.8165 O.2     1  UNL1       -0.2733
     27 C          11.4429   36.1042   -3.9579 C.3     1  UNL1        0.1500
     28 N          10.2425   35.2880   -4.1040 N.am    1  UNL1       -0.2970
     29 C          10.0152   34.0361   -4.5173 C.2     1  UNL1        0.2407
     30 O          10.5937   33.5921   -5.5090 O.2     1  UNL1       -0.2733
     31 H           8.3109   36.6189   -4.4274 H       1  UNL1        0.1495
     32 H           8.2494   38.0933   -7.3308 H       1  UNL1        0.1499
     33 H           6.9041   41.1121   -5.8825 H       1  UNL1        0.1499
     34 H           9.1082   40.3365   -4.3248 H       1  UNL1        0.1499
     35 H           8.2896   39.9445   -2.0509 H       1  UNL1        0.1499
     36 H          12.7908   38.1588   -3.0865 H       1  UNL1        0.1499
     37 H           9.4060   35.8297   -3.9003 H       1  UNL1        0.1499
     38 C           8.3440   35.3454   -8.6883 C.3     1  UNL1        0.1373
     39 C           8.9871   36.1330   -9.8266 C.3     1  UNL1        0.0340
     40 O           9.3350   34.5862   -7.9758 O.3     1  UNL1       -0.3823
     41 H           9.5783   35.1414   -7.1944 H       1  UNL1        0.2104
     42 C           7.7626   32.8584   -1.5904 C.2     1  UNL1        0.2371
     43 O           7.5024   31.6708   -1.7499 O.2     1  UNL1       -0.2737
     44 N           8.4569   33.6730   -2.5259 N.am    1  UNL1       -0.2972
     45 H           8.5792   34.6574   -2.3890 H       1  UNL1        0.1499
     46 C           7.3548   33.2198   -0.1817 C.3     1  UNL1        0.1329
     47 N           8.4968   32.6738    0.8919 N.3     1  UNL1       -0.2898
     48 H           8.8200   31.7927    0.4982 H       1  UNL1        0.1237
     49 C           8.1434   32.2934    2.3068 C.3     1  UNL1        0.0912
     50 C           8.1267   33.0535    3.5945 C.3     1  UNL1        0.1141
     51 C           9.0842   34.5474    3.3757 C.3     1  UNL1        0.1298
     52 C           8.6924   36.0575    3.3729 C.3     1  UNL1        0.0335
     53 O          10.4132   34.4843    3.9705 O.3     1  UNL1       -0.3827
     54 H          11.0063   34.9552    3.3422 H       1  UNL1        0.2104
     55 C           6.2843   33.1321    5.4587 C.2     1  UNL1        0.2404
     56 O           7.0852   33.8195    6.1093 O.2     1  UNL1       -0.2733
     57 N           6.7052   32.8847    4.1673 N.am    1  UNL1       -0.3010
     58 H           6.0491   32.2977    3.6974 H       1  UNL1        0.1495
     59 C           4.6660   32.8983    6.1298 C.3     1  UNL1        0.1499
     60 C           3.5816   33.7560    8.3821 C.2     1  UNL1        0.2228
     61 O           3.2093   34.9038    8.6798 O.2     1  UNL1       -0.2751
     62 N           3.9688   33.7135    7.1136 N.am    1  UNL1       -0.2983
     63 H           4.1208   34.6652    6.8395 H       1  UNL1        0.1498
     64 C           3.4266   32.7053    9.4564 C.3     1  UNL1        0.0851
     65 C           1.9981   32.5069    9.9800 C.3     1  UNL1        0.0096
     66 C           0.9526   31.8138    9.1041 C.3     1  UNL1        0.0005
     67 C           1.2642   30.4380    8.4856 C.3     1  UNL1        0.0000
     68 C           1.0992   29.1239    9.2453 C.3     1  UNL1        0.0000
     69 C          -0.2513   29.1762    9.9171 C.3     1  UNL1        0.0000
     70 C           1.6241   27.9893   11.6190 C.3     1  UNL1        0.0000
     71 C           2.0411   28.8030   10.3952 C.3     1  UNL1        0.0000
     72 C           3.5138   32.0806    5.3580 C.3     1  UNL1        0.0458
     73 C           2.7515   33.0674    4.0157 C.3     1  UNL1        0.0674
     74 N           1.9050   34.3082    4.4000 N.3     1  UNL1       -0.3211
     75 H           2.5161   34.7089    5.1903 H       1  UNL1        0.1189
     76 H           2.1555   35.0669    3.7400 H       1  UNL1        0.1189
     77 C           7.0398   34.8899    0.0452 C.3     1  UNL1        0.0419
     78 C           8.0564   36.2056   -0.1941 C.3     1  UNL1        0.0670
     79 N           8.0062   37.0769   -1.3972 N.3     1  UNL1       -0.3211
     80 H           8.9172   37.5272   -1.5434 H       1  UNL1        0.1189
     81 H           8.1134   36.5428   -2.2331 H       1  UNL1        0.1189
     82 C          10.9132   41.0223   -6.6949 C.3     1  UNL1        0.0458
     83 C          11.8677   42.1810   -6.9902 C.3     1  UNL1        0.0674
     84 N          11.4266   43.5259   -6.7345 N.3     1  UNL1       -0.3211
     85 H          10.7007   43.5654   -6.0249 H       1  UNL1        0.1189
     86 H          10.7138   43.7441   -7.5193 H       1  UNL1        0.1189
     87 C          12.2749   35.2972   -2.9990 C.3     1  UNL1        0.0458
     88 C          13.7475   35.1526   -3.0196 C.3     1  UNL1        0.0674
     89 N          13.8817   36.2099   -2.1427 N.3     1  UNL1       -0.3211
     90 H          14.6230   36.7787   -2.5462 H       1  UNL1        0.1189
     91 H          14.2337   35.7027   -1.2715 H       1  UNL1        0.1189
     92 C          13.0029   40.4440   -1.9368 C.3     1  UNL1        0.0290
     93 C          13.5595   41.9354   -2.1492 C.3     1  UNL1        0.0021
     94 C          13.1805   42.8388   -3.3456 C.3     1  UNL1        0.0001
     95 C          13.2052   42.7750   -0.9268 C.3     1  UNL1        0.0001
     96 C           9.0218   42.7986   -1.2338 C.3     1  UNL1        0.0290
     97 C           7.8308   43.0333   -0.2269 C.3     1  UNL1        0.0021
     98 C           6.8971   41.8200   -0.0218 C.3     1  UNL1        0.0001
     99 C           8.3019   43.3151    1.1845 C.3     1  UNL1        0.0001
    100 C           4.8040   39.8113   -6.3625 C.3     1  UNL1        0.0458
    101 C           4.4657   41.0627   -7.1346 C.3     1  UNL1        0.0674
    102 N           3.4224   40.7282   -8.0805 N.3     1  UNL1       -0.3211
    103 H           3.4550   41.4356   -8.8224 H       1  UNL1        0.1189
    104 H           2.4808   40.7832   -7.6937 H       1  UNL1        0.1189
@<TRIPOS>BOND
     1    70    71    1
     2    71    68    1
     3    68    69    1
     4    68    67    1
     5    67    66    1
     6    66    65    1
     7    65    64    1
     8    64    60    1
     9    60    61    2
    10    60    62   am
    11    62    59    1
    12    62    63    1
    13    59    72    1
    14    59    55    1
    15    72    73    1
    16    73    74    1
    17    74    75    1
    18    74    76    1
    19    55    56    2
    20    55    57   am
    21    57    50    1
    22    57    58    1
    23    50    49    1
    24    50    51    1
    25    49    47    1
    26    47    46    1
    27    47    48    1
    28    46    77    1
    29    46    42    1
    30    77    78    1
    31    78    79    1
    32    79    80    1
    33    79    81    1
    34    42    43    2
    35    42    44   am
    36    44    45    1
    37     1     2    1
    38     1    29    1
    39     1    44    1
    40     2     3    1
    41     3     4    1
    42     4     5   am
    43     4    31    1
    44     5     6    2
    45     5     7    1
    46     7     8    1
    47     7    38    1
    48    38    39    1
    49    38    40    1
    50    40    41    1
    51     8     9   am
    52     8    32    1
    53     9    10    2
    54     9    11    1
    55    11    12    1
    56    11   100    1
    57   100   101    1
    58   101   102    1
    59   102   103    1
    60   102   104    1
    61    12    13   am
    62    12    33    1
    63    13    14    2
    64    13    15    1
    65    15    16    1
    66    15    82    1
    67    82    83    1
    68    83    84    1
    69    84    85    1
    70    84    86    1
    71    16    17   am
    72    16    34    1
    73    17    18    2
    74    17    19    1
    75    19    20    1
    76    19    96    1
    77    96    97    1
    78    97    98    1
    79    97    99    1
    80    20    21   am
    81    20    35    1
    82    21    22    2
    83    21    23    1
    84    23    92    1
    85    23    24    1
    86    92    93    1
    87    93    94    1
    88    93    95    1
    89    24    25   am
    90    24    36    1
    91    25    26    2
    92    25    27    1
    93    27    28    1
    94    27    87    1
    95    87    88    1
    96    88    89    1
    97    89    90    1
    98    89    91    1
    99    28    29   am
   100    28    37    1
   101    29    30    2
   102    51    52    1
   103    51    53    1
   104    53    54    1
#	Name:			CHEMBL222863
#	Creating user name:	trannguyen
#	Creation time:		Tue Feb  8 18:26:14 2022


#	Modifying user name:	trannguyen
#	Modification time:	Tue Feb  8 18:26:14 2022

@<TRIPOS>MOLECULE
CHEMBL222863
 49 54 0 0 0
SMALL
GASTEIGER

@<TRIPOS>ATOM
      1 C          10.9614   32.7705    8.1626 C.3     1  UNL1        0.1226
      2 C          10.5636   31.8521    9.3129 C.3     1  UNL1        0.0591
      3 C           9.2226   31.1943    9.0506 C.3     1  UNL1        0.1174
      4 O           9.4260   30.3452    7.9123 O.3     1  UNL1       -0.3842
      5 C           8.0305   32.2138    8.8213 C.3     1  UNL1        0.0767
      6 C           6.7731   31.3211    8.3884 C.3     1  UNL1        0.0359
      7 C           5.9328   30.6403    9.4967 C.3     1  UNL1        0.1108
      8 O           6.7483   30.2088   10.5779 O.3     1  UNL1       -0.3845
      9 C           4.7767   31.4829   10.0169 C.3     1  UNL1        0.0318
     10 C           3.8559   32.0378    8.9165 C.3     1  UNL1        0.0285
     11 C           2.9072   33.0580    9.6101 C.3     1  UNL1        0.0027
     12 C           3.0441   30.9498    8.1499 C.3     1  UNL1        0.0244
     13 C           2.6008   31.6753    6.8600 C.3     1  UNL1        0.0066
     14 C           3.5849   32.8385    6.6499 C.3     1  UNL1        0.0272
     15 C           4.6604   32.6961    7.7446 C.3     1  UNL1        0.0886
     16 O           5.1087   33.9694    8.1766 O.3     1  UNL1       -0.3867
     17 C           5.8700   31.8399    7.2471 C.3     1  UNL1        0.0273
     18 C           6.6701   32.4364    6.0582 C.3     1  UNL1        0.0048
     19 C           8.1715   32.6564    6.2988 C.3     1  UNL1        0.0272
     20 C           8.4313   33.2428    7.6911 C.3     1  UNL1        0.0951
     21 O           7.5873   34.4184    7.7102 O.3     1  UNL1       -0.3865
     22 C           9.8673   33.7945    7.8576 C.3     1  UNL1        0.0568
     23 H           9.9400   29.5708    8.2046 H       1  UNL1        0.2103
     24 H           6.1678   29.8822   11.2882 H       1  UNL1        0.2103
     25 H           5.7801   34.3135    7.5463 H       1  UNL1        0.2102
     26 H           7.6575   34.8256    8.6018 H       1  UNL1        0.2102
     27 C           1.9692   30.2291    8.9122 C.2     1  UNL1        0.0053
     28 C           2.0846   29.2698    9.8298 C.2     1  UNL1        0.0769
     29 C           0.7337   28.9344   10.2818 C.2     1  UNL1        0.3412
     30 O           0.4675   28.0851   11.1040 O.2     1  UNL1       -0.2449
     31 O          -0.1613   29.7276    9.6321 O.3     1  UNL1       -0.4408
     32 C           0.5390   30.5914    8.7428 C.3     1  UNL1        0.2314
     33 C           7.8465   32.9861   10.1676 C.3     1  UNL1        0.1417
     34 O           6.9297   34.0697   10.1291 O.3     1  UNL1       -0.3818
     35 H           6.1789   33.8589    9.5335 H       1  UNL1        0.2104
     36 O          12.1482   33.5093    8.4898 O.3     1  UNL1       -0.3310
     37 C          14.9720   35.2966    5.9562 C.3     1  UNL1        0.0348
     38 C          13.8979   34.3171    6.4204 C.3     1  UNL1        0.1471
     39 O          14.3393   33.7716    7.6732 O.3     1  UNL1       -0.3286
     40 C          13.3911   32.8550    8.2488 C.3     1  UNL1        0.2655
     41 C          13.2905   31.6351    7.3166 C.3     1  UNL1        0.1964
     42 O          14.5736   30.9993    7.1453 O.3     1  UNL1       -0.3775
     43 C          12.7789   32.0975    5.9519 C.3     1  UNL1        0.1714
     44 O          12.7670   30.9949    5.0299 O.3     1  UNL1       -0.3794
     45 C          13.6632   33.2117    5.3766 C.3     1  UNL1        0.1668
     46 O          13.0454   33.7436    4.2011 O.3     1  UNL1       -0.3795
     47 H          15.2527   31.6942    7.2655 H       1  UNL1        0.2106
     48 H          13.5401   30.4425    5.2673 H       1  UNL1        0.2105
     49 H          12.6982   32.9719    3.7111 H       1  UNL1        0.2105
@<TRIPOS>BOND
     1    38    39    1
     2    38    45    1
     3    38    37    1
     4    39    40    1
     5    40    41    1
     6    40    36    1
     7     1     2    1
     8     1    22    1
     9     1    36    1
    10     2     3    1
    11     3     5    1
    12     3     4    1
    13     4    23    1
    14     5     6    1
    15     5    20    1
    16     5    33    1
    17    33    34    1
    18    34    35    1
    19     6     7    1
    20     6    17    1
    21     7     9    1
    22     7     8    1
    23     8    24    1
    24     9    10    1
    25    10    12    1
    26    10    15    1
    27    10    11    1
    28    12    13    1
    29    12    27    1
    30    27    28    2
    31    27    32    1
    32    28    29    1
    33    29    30    2
    34    29    31    1
    35    31    32    1
    36    13    14    1
    37    14    15    1
    38    15    17    1
    39    15    16    1
    40    16    25    1
    41    17    18    1
    42    18    19    1
    43    19    20    1
    44    20    22    1
    45    20    21    1
    46    21    26    1
    47    41    42    1
    48    41    43    1
    49    42    47    1
    50    43    44    1
    51    43    45    1
    52    44    48    1
    53    45    46    1
    54    46    49    1
#	Name:			CHEMBL2252949
#	Creating user name:	trannguyen
#	Creation time:		Tue Feb  8 18:26:14 2022


#	Modifying user name:	trannguyen
#	Modification time:	Tue Feb  8 18:26:14 2022

@<TRIPOS>MOLECULE
CHEMBL2252949
 11 12 0 0 0
SMALL
GASTEIGER

@<TRIPOS>ATOM
      1 C           5.0168   32.2021    6.6217 C.3     1  UNL1        0.0004
      2 C           3.7189   32.8313    6.0778 C.3     1  UNL1        0.0066
      3 C           3.2142   33.8001    7.1666 C.3     1  UNL1        0.0004
      4 C           3.8647   33.4676    4.6670 C.3     1  UNL1        0.0077
      5 C           4.2002   32.2500    3.7681 C.3     1  UNL1        0.0009
      6 C           3.3557   31.1126    4.3855 C.3     1  UNL1        0.0069
      7 C           2.6620   31.8071    5.5805 C.3     1  UNL1        0.0515
      8 C           2.0528   30.8716    6.5974 C.3     1  UNL1        0.0073
      9 C           1.6678   32.7575    4.9077 C.2     1  UNL1        0.1498
     10 O           0.4576   32.6010    4.8374 O.2     1  UNL1       -0.2961
     11 C           2.4284   33.9190    4.3000 C.3     1  UNL1        0.0645
@<TRIPOS>BOND
     1     1     2    1
     2     2     3    1
     3     2     4    1
     4     2     7    1
     5     4     5    1
     6     4    11    1
     7     5     6    1
     8     6     7    1
     9     7     8    1
    10     7     9    1
    11     9    10    2
    12     9    11    1
#	Name:			CHEMBL227934
#	Creating user name:	trannguyen
#	Creation time:		Tue Feb  8 18:26:14 2022


#	Modifying user name:	trannguyen
#	Modification time:	Tue Feb  8 18:26:14 2022

@<TRIPOS>MOLECULE
CHEMBL227934
 25 31 0 0 0
SMALL
GASTEIGER

@<TRIPOS>ATOM
      1 O           5.9827   32.3691   10.0885 O.2     1  UNL1       -0.2744
      2 C           6.0622   32.5972    8.8797 C.2     1  UNL1        0.2318
      3 C           7.4248   32.9341    8.2713 C.3     1  UNL1        0.1151
      4 C           7.5781   32.8895    6.7330 C.3     1  UNL1        0.1266
      5 O           7.8025   34.2423    6.3113 O.3     1  UNL1       -0.3509
      6 C           8.2118   34.3800    4.9560 C.3     1  UNL1        0.1677
      7 C           6.9879   34.5281    4.1132 C.2     1  UNL1       -0.0015
      8 C           6.1025   33.5341    3.9058 C.2     1  UNL1       -0.0303
      9 C           4.8313   33.7581    3.1097 C.3     1  UNL1        0.0946
     10 N           3.6329   33.0191    3.5335 N.3     1  UNL1       -0.2702
     11 C           2.5982   33.8367    4.1629 C.3     1  UNL1        0.0728
     12 C           2.9487   33.8776    5.6400 C.3     1  UNL1        0.0243
     13 C           3.7648   32.5829    5.8981 C.3     1  UNL1        0.0520
     14 C           3.0884   31.7653    6.9765 C.ar    1  UNL1       -0.0062
     15 C           1.8871   31.0699    6.9064 C.ar    1  UNL1       -0.0030
     16 C           1.4097   30.4365    8.0556 C.ar    1  UNL1       -0.0002
     17 C           2.1248   30.5086    9.2591 C.ar    1  UNL1        0.0013
     18 C           3.3331   31.2046    9.3268 C.ar    1  UNL1        0.0146
     19 C           3.8022   31.8236    8.1824 C.ar    1  UNL1        0.0498
     20 N           5.0049   32.5168    7.9982 N.am    1  UNL1       -0.2601
     21 C           5.1193   32.9216    6.6003 C.3     1  UNL1        0.0873
     22 C           6.3652   32.2209    6.0608 C.3     1  UNL1        0.0504
     23 C           6.3285   32.1681    4.5273 C.3     1  UNL1        0.0247
     24 C           5.1800   31.2275    4.1679 C.3     1  UNL1        0.0205
     25 C           3.8668   31.9220    4.4931 C.3     1  UNL1        0.0634
@<TRIPOS>BOND
     1     1     2    2
     2     2     3    1
     3     2    20   am
     4     3     4    1
     5     4     5    1
     6     4    22    1
     7     5     6    1
     8     6     7    1
     9     7     8    2
    10     8     9    1
    11     8    23    1
    12     9    10    1
    13    10    11    1
    14    10    25    1
    15    11    12    1
    16    13    12    1
    17    13    14    1
    18    13    21    1
    19    13    25    1
    20    14    15   ar
    21    14    19   ar
    22    15    16   ar
    23    16    17   ar
    24    17    18   ar
    25    18    19   ar
    26    19    20    1
    27    20    21    1
    28    21    22    1
    29    22    23    1
    30    23    24    1
    31    24    25    1
#	Name:			CHEMBL2347005
#	Creating user name:	trannguyen
#	Creation time:		Tue Feb  8 18:26:14 2022


#	Modifying user name:	trannguyen
#	Modification time:	Tue Feb  8 18:26:14 2022

@<TRIPOS>MOLECULE
CHEMBL2347005
 46 48 0 0 0
SMALL
GASTEIGER

@<TRIPOS>ATOM
      1 C          10.7163   31.8361    9.1581 C.3     1  UNL1        0.0000
      2 C           9.3806   32.0144    8.4278 C.3     1  UNL1        0.0000
      3 C           8.3687   30.9467    8.7734 C.2     1  UNL1        0.0000
      4 C           7.0505   31.1649    8.5910 C.2     1  UNL1        0.0000
      5 C           6.1077   30.3773    9.3329 C.2     1  UNL1        0.0000
      6 C           4.8585   30.7995    9.5231 C.2     1  UNL1        0.0000
      7 C           4.2285   31.9973    8.8666 C.3     1  UNL1        0.0000
      8 C           2.8353   31.5204    8.5069 C.3     1  UNL1        0.0000
      9 C           5.0239   32.6606    7.6958 C.3     1  UNL1        0.0000
     10 C           6.5919   32.4672    7.9552 C.3     1  UNL1        0.0000
     11 C           7.3146   33.5510    8.8420 C.3     1  UNL1        0.0000
     12 C           8.8470   33.4532    8.6728 C.3     1  UNL1        0.0000
     13 C           4.5059   32.2975    6.1881 C.3     1  UNL1        0.0000
     14 C           4.9953   33.2331    4.9988 C.3     1  UNL1        0.0000
     15 C           6.3485   32.9968    4.2499 C.3     1  UNL1        0.0000
     16 C           7.2102   34.2478    4.0341 C.3     1  UNL1        0.0000
     17 C           8.4935   33.9733    3.2182 C.3     1  UNL1        0.0000
     18 C           8.1944   32.9663    2.0959 C.3     1  UNL1        0.0000
     19 C           7.1644   31.8954    2.3260 C.2     1  UNL1        0.0000
     20 O           7.1842   30.8379    1.7018 O.2     1  UNL1        0.0000
     21 O           6.0870   32.2737    3.0492 O.3     1  UNL1        0.0000
     22 O           9.6056   33.7203    4.1347 O.3     1  UNL1        0.0000
     23 SI         10.6795   34.9444    4.6460 Si      1  UNL1        0.0000
     24 C          11.7369   34.0997    5.9557 C.3     1  UNL1        0.0000
     25 C          11.8829   35.5453    3.3282 C.3     1  UNL1        0.0000
     26 C           9.8150   36.6800    5.5398 C.3     1  UNL1        0.0000
     27 C           8.7778   36.3401    6.6480 C.3     1  UNL1        0.0000
     28 C          10.9190   37.5472    6.1891 C.3     1  UNL1        0.0000
     29 C           9.0506   37.4723    4.4593 C.3     1  UNL1        0.0000
     30 O           6.8925   33.6739   10.2320 O.3     1  UNL1        0.0000
     31 C           6.0087   34.6318   10.7155 C.2     1  UNL1        0.0000
     32 O           4.9612   34.4877   11.2773 O.2     1  UNL1        0.0000
     33 N           6.5563   35.8796   10.4245 N.am    1  UNL1        0.0000
     34 H           5.8837   36.5789   10.1332 H       1  UNL1        0.0000
     35 C           7.8733   36.2836   10.8948 C.3     1  UNL1        0.0000
     36 C           8.4312   37.5448   10.1843 C.3     1  UNL1        0.0000
     37 C           9.9703   37.5594   10.0717 C.3     1  UNL1        0.0000
     38 C          10.6933   36.2375   10.4308 C.3     1  UNL1        0.0000
     39 C          11.5839   35.6538    9.3214 C.3     1  UNL1        0.0000
     40 C          12.9861   36.2819    9.2041 C.3     1  UNL1        0.0000
     41 C          14.1061   35.2625    9.0464 C.2     1  UNL1        0.0000
     42 O          15.2379   35.5780    8.6891 O.2     1  UNL1        0.0000
     43 N          13.7238   33.9604    9.3032 N.am    1  UNL1        0.0000
     44 O          14.7856   33.0242    9.3185 O.3     1  UNL1        0.0000
     45 H          12.9836   33.7679    9.9704 H       1  UNL1        0.0000
     46 H          14.9185   32.8551    8.3656 H       1  UNL1        0.0000
@<TRIPOS>BOND
     1     1     2    1
     2     2     3    1
     3     2    12    1
     4     3     4    2
     5     4     5    1
     6     4    10    1
     7     5     6    2
     8     6     7    1
     9     7     8    1
    10     7     9    1
    11     9    13    1
    12     9    10    1
    13    13    14    1
    14    15    16    1
    15    15    21    1
    16    15    14    1
    17    16    17    1
    18    17    18    1
    19    17    22    1
    20    22    23    1
    21    23    24    1
    22    23    25    1
    23    23    26    1
    24    26    27    1
    25    26    28    1
    26    26    29    1
    27    18    19    1
    28    19    20    2
    29    19    21    1
    30    10    11    1
    31    11    12    1
    32    11    30    1
    33    30    31    1
    34    31    32    2
    35    31    33   am
    36    33    35    1
    37    33    34    1
    38    35    36    1
    39    36    37    1
    40    37    38    1
    41    38    39    1
    42    39    40    1
    43    40    41    1
    44    41    42    2
    45    41    43   am
    46    43    44    1
    47    43    45    1
    48    44    46    1
#	Name:			CHEMBL2347006
#	Creating user name:	trannguyen
#	Creation time:		Tue Feb  8 18:26:14 2022


#	Modifying user name:	trannguyen
#	Modification time:	Tue Feb  8 18:26:14 2022

@<TRIPOS>MOLECULE
CHEMBL2347006
 35 36 0 0 0
SMALL
GASTEIGER

@<TRIPOS>ATOM
      1 C           5.7441   32.4560    5.2591 C.3     1  UNL1        0.1730
      2 C           5.9763   32.7726    3.7623 C.3     1  UNL1        0.0483
      3 C           7.2391   32.1590    3.1660 C.3     1  UNL1        0.0253
      4 C           7.3911   32.6175    1.7126 C.3     1  UNL1        0.0048
      5 C           8.4053   32.6086    3.9976 C.2     1  UNL1       -0.0305
      6 C           8.3197   32.6996    5.3372 C.2     1  UNL1       -0.0236
      7 C           9.4431   33.2003    6.0900 C.2     1  UNL1       -0.0091
      8 C           9.5041   33.1538    7.4232 C.2     1  UNL1       -0.0268
      9 C           8.4352   32.5525    8.2896 C.3     1  UNL1        0.0224
     10 C           8.9406   31.1834    8.7668 C.3     1  UNL1        0.0047
     11 C           7.0322   32.5531    7.5982 C.3     1  UNL1        0.0116
     12 C           7.0817   32.1924    6.0686 C.3     1  UNL1        0.0624
     13 O           4.9737   33.5582    5.8026 O.3     1  UNL1       -0.4519
     14 C           3.6285   33.5754    5.4788 C.2     1  UNL1        0.3163
     15 O           2.9946   34.5730    5.1848 O.2     1  UNL1       -0.2501
     16 C           3.0188   32.1710    5.5786 C.3     1  UNL1        0.0991
     17 C           2.0765   32.0880    6.7714 C.3     1  UNL1        0.0116
     18 C           3.0659   30.6497    3.5206 C.3     1  UNL1        0.0006
     19 C           2.3429   31.7638    4.2589 C.3     1  UNL1        0.0111
     20 C           6.0268   31.6209    8.3146 C.3     1  UNL1        0.0033
     21 C           4.8768   32.3295    9.0310 C.3     1  UNL1        0.0293
     22 C           4.0583   31.3855    9.9239 C.3     1  UNL1        0.1130
     23 O           2.8232   32.0518   10.1730 O.3     1  UNL1       -0.3844
     24 H           3.0054   32.8190   10.7435 H       1  UNL1        0.2103
     25 C           3.7883   30.0198    9.2635 C.3     1  UNL1        0.0589
     26 C           4.3915   28.8064    9.9924 C.3     1  UNL1        0.1221
     27 O           4.8055   29.2147   11.3033 O.3     1  UNL1       -0.3839
     28 H           5.4489   29.9398   11.1869 H       1  UNL1        0.2104
     29 C           3.4327   27.6220   10.0792 C.3     1  UNL1        0.1163
     30 C           2.2021   27.9046   10.9016 C.2     1  UNL1        0.2468
     31 O           2.2014   27.9511   12.1292 O.2     1  UNL1       -0.2730
     32 N           1.0560   28.0073   10.1496 N.am    1  UNL1       -0.1969
     33 O          -0.1347   28.2907   10.8534 O.3     1  UNL1       -0.2952
     34 H           1.1173   28.3184    9.1785 H       1  UNL1        0.1822
     35 H           0.1728   28.2956   11.7854 H       1  UNL1        0.2414
@<TRIPOS>BOND
     1    18    19    1
     2    16    17    1
     3    16    14    1
     4    16    19    1
     5    14    15    2
     6    14    13    1
     7     1     2    1
     8     1    12    1
     9     1    13    1
    10     2     3    1
    11     3     4    1
    12     3     5    1
    13     5     6    2
    14     6     7    1
    15     6    12    1
    16     7     8    2
    17     8     9    1
    18     9    10    1
    19     9    11    1
    20    11    20    1
    21    11    12    1
    22    20    21    1
    23    21    22    1
    24    22    23    1
    25    22    25    1
    26    23    24    1
    27    25    26    1
    28    26    27    1
    29    26    29    1
    30    27    28    1
    31    29    30    1
    32    30    31    2
    33    30    32   am
    34    32    33    1
    35    32    34    1
    36    33    35    1
#	Name:			CHEMBL2347007
#	Creating user name:	trannguyen
#	Creation time:		Tue Feb  8 18:26:14 2022


#	Modifying user name:	trannguyen
#	Modification time:	Tue Feb  8 18:26:14 2022

@<TRIPOS>MOLECULE
CHEMBL2347007
 36 37 0 0 0
SMALL
GASTEIGER

@<TRIPOS>ATOM
      1 C           3.0044   31.2239    8.7918 C.3     1  UNL1        0.1730
      2 C           2.4922   29.7867    9.1115 C.3     1  UNL1        0.0483
      3 C           3.1782   29.1037   10.3089 C.3     1  UNL1        0.0253
      4 C           2.7837   27.6252   10.3924 C.3     1  UNL1        0.0048
      5 C           4.6676   29.2433   10.1423 C.2     1  UNL1       -0.0305
      6 C           5.1990   30.4062    9.7248 C.2     1  UNL1       -0.0236
      7 C           6.5931   30.4989    9.3923 C.2     1  UNL1       -0.0091
      8 C           7.2012   31.6672    9.1749 C.2     1  UNL1       -0.0268
      9 C           6.5312   33.0018    9.3522 C.3     1  UNL1        0.0224
     10 C           6.9726   33.5450   10.7174 C.3     1  UNL1        0.0047
     11 C           4.9894   32.9532    9.1011 C.3     1  UNL1        0.0116
     12 C           4.2997   31.6235    9.5939 C.3     1  UNL1        0.0624
     13 O           3.2271   31.3055    7.3493 O.3     1  UNL1       -0.4519
     14 C           2.1713   31.7464    6.5857 C.2     1  UNL1        0.3158
     15 O           1.0147   31.7014    6.9447 O.2     1  UNL1       -0.2501
     16 C           2.6377   32.2701    5.1981 C.3     1  UNL1        0.0896
     17 C           1.5478   33.1885    4.6226 C.3     1  UNL1        0.0111
     18 C           2.8811   31.0834    4.2539 C.3     1  UNL1        0.0111
     19 C           4.4143   33.8761    4.1506 C.3     1  UNL1        0.0006
     20 C           3.9596   33.0772    5.3740 C.3     1  UNL1        0.0106
     21 C           4.2341   34.1943    9.6840 C.3     1  UNL1        0.0033
     22 C           3.0659   34.7161    8.8278 C.3     1  UNL1        0.0293
     23 C           2.8395   36.2515    8.8648 C.3     1  UNL1        0.1130
     24 O           2.5049   36.6354    7.5305 O.3     1  UNL1       -0.3844
     25 H           3.3121   36.9827    7.1120 H       1  UNL1        0.2103
     26 C           1.6828   36.6845    9.7864 C.3     1  UNL1        0.0589
     27 C           1.2161   38.1659    9.7241 C.3     1  UNL1        0.1221
     28 O           0.3244   38.3251    8.6148 O.3     1  UNL1       -0.3839
     29 H           0.8389   38.1163    7.8110 H       1  UNL1        0.2104
     30 C           0.5875   38.7427   11.0039 C.3     1  UNL1        0.1163
     31 C          -0.1477   40.0582   10.7843 C.2     1  UNL1        0.2468
     32 O           0.0942   40.8238    9.8438 O.2     1  UNL1       -0.2730
     33 N          -1.0890   40.3718   11.7372 N.am    1  UNL1       -0.1969
     34 O          -1.9668   41.4357   11.4041 O.3     1  UNL1       -0.2952
     35 H          -1.4681   39.6341   12.3304 H       1  UNL1        0.1822
     36 H          -1.5805   41.7784   10.5681 H       1  UNL1        0.2414
@<TRIPOS>BOND
     1    19    20    1
     2    20    16    1
     3    16    17    1
     4    16    18    1
     5    16    14    1
     6    14    15    2
     7    14    13    1
     8     1     2    1
     9     1    12    1
    10     1    13    1
    11     2     3    1
    12     3     4    1
    13     3     5    1
    14     5     6    2
    15     6     7    1
    16     6    12    1
    17     7     8    2
    18     8     9    1
    19     9    10    1
    20     9    11    1
    21    11    21    1
    22    11    12    1
    23    21    22    1
    24    22    23    1
    25    23    24    1
    26    23    26    1
    27    24    25    1
    28    26    27    1
    29    27    28    1
    30    27    30    1
    31    28    29    1
    32    30    31    1
    33    31    32    2
    34    31    33   am
    35    33    34    1
    36    33    35    1
    37    34    36    1
#	Name:			CHEMBL2347008
#	Creating user name:	trannguyen
#	Creation time:		Tue Feb  8 18:26:14 2022


#	Modifying user name:	trannguyen
#	Modification time:	Tue Feb  8 18:26:14 2022

@<TRIPOS>MOLECULE
CHEMBL2347008
 47 50 0 0 0
SMALL
GASTEIGER

@<TRIPOS>ATOM
      1 C           5.9106   32.5445    8.5013 C.ar    1  UNL1        0.0410
      2 C           5.5515   32.5795    7.1411 C.ar    1  UNL1        0.0667
      3 C           4.0478   32.3190    7.1250 C.ar    1  UNL1        0.0212
      4 C           3.7185   32.0017    8.4760 C.ar    1  UNL1        0.0597
      5 N           4.7144   32.7481    9.1912 N.ar    1  UNL1       -0.3304
      6 C           2.7643   31.0679    9.1777 C.ar    1  UNL1        0.0159
      7 C           3.1566   29.9452    9.9450 C.ar    1  UNL1        0.0037
      8 C           2.2497   28.9519   10.3683 C.ar    1  UNL1        0.0297
      9 C           0.9085   29.0786   10.0680 C.ar    1  UNL1        0.1401
     10 F           0.0435   28.1326   10.4608 F       1  UNL1       -0.2042
     11 C           0.4664   30.1785    9.3502 C.ar    1  UNL1        0.0297
     12 C           1.3857   31.1545    8.9058 C.ar    1  UNL1        0.0037
     13 C           3.1983   32.2937    5.8710 C.ar    1  UNL1        0.0016
     14 C           2.7840   33.5430    5.3478 C.ar    1  UNL1        0.0000
     15 C           2.5878   33.7572    3.9597 C.ar    1  UNL1        0.0000
     16 C           2.5636   32.6825    3.0919 C.ar    1  UNL1        0.0000
     17 C           2.7070   31.4042    3.6273 C.ar    1  UNL1        0.0000
     18 C           3.0454   31.2079    4.9970 C.ar    1  UNL1        0.0000
     19 C           6.3229   32.8706    5.8920 C.2     1  UNL1        0.2506
     20 O           7.0616   31.9526    5.4882 O.2     1  UNL1       -0.2698
     21 N           6.3736   34.0131    5.1313 N.am    1  UNL1       -0.2803
     22 H           6.1496   34.8439    5.5535 H       1  UNL1        0.1552
     23 C           6.9515   34.0636    3.7398 C.ar    1  UNL1        0.0505
     24 C           6.3763   33.4182    2.6875 C.ar    1  UNL1        0.0147
     25 C           7.0340   33.3262    1.4635 C.ar    1  UNL1        0.0013
     26 C           8.2985   33.8921    1.3258 C.ar    1  UNL1        0.0001
     27 C           8.8792   34.5362    2.4124 C.ar    1  UNL1        0.0013
     28 C           8.2286   34.6011    3.6583 C.ar    1  UNL1        0.0147
     29 C           7.1413   32.2901   10.7763 C.3     1  UNL1        0.0062
     30 C           7.2483   32.4183    9.2494 C.3     1  UNL1        0.0385
     31 C           8.1063   31.2618    8.7788 C.3     1  UNL1        0.0062
     32 C           4.2825   33.8874   10.0188 C.3     1  UNL1        0.1082
     33 C           2.9657   34.6843   10.1915 C.3     1  UNL1        0.0538
     34 C           2.7300   36.0723    9.5913 C.3     1  UNL1        0.1149
     35 O           2.6168   35.9040    8.1648 O.3     1  UNL1       -0.3843
     36 H           3.5070   35.8677    7.7775 H       1  UNL1        0.2103
     37 C           1.4751   36.8161   10.0067 C.3     1  UNL1        0.0590
     38 C           1.4273   38.2633    9.4974 C.3     1  UNL1        0.1221
     39 O           0.4333   38.3660    8.4788 O.3     1  UNL1       -0.3839
     40 H           0.5752   39.1976    7.9950 H       1  UNL1        0.2104
     41 C           1.2184   39.3100   10.6032 C.3     1  UNL1        0.1163
     42 C           0.0632   40.2428   10.4156 C.2     1  UNL1        0.2468
     43 O           0.0641   41.2949    9.7584 O.2     1  UNL1       -0.2730
     44 N          -1.0716   39.8080   11.0019 N.am    1  UNL1       -0.1969
     45 O          -2.2425   40.6000   10.8448 O.3     1  UNL1       -0.2952
     46 H          -1.2070   38.8703   11.4085 H       1  UNL1        0.1822
     47 H          -1.9100   41.3063   10.2345 H       1  UNL1        0.2414
@<TRIPOS>BOND
     1    29    30    1
     2    30    31    1
     3    30     1    1
     4     1     2   ar
     5     1     5   ar
     6     2    19    1
     7     2     3   ar
     8    19    20    2
     9    19    21   am
    10    21    23    1
    11    21    22    1
    12    23    24   ar
    13    23    28   ar
    14    24    25   ar
    15    25    26   ar
    16    26    27   ar
    17    27    28   ar
    18     3    13    1
    19     3     4   ar
    20    13    14   ar
    21    13    18   ar
    22    14    15   ar
    23    15    16   ar
    24    16    17   ar
    25    17    18   ar
    26     4     6    1
    27     4     5   ar
    28     6     7   ar
    29     6    12   ar
    30     7     8   ar
    31     8     9   ar
    32     9    10    1
    33     9    11   ar
    34    11    12   ar
    35     5    32    1
    36    32    33    1
    37    33    34    1
    38    34    35    1
    39    34    37    1
    40    35    36    1
    41    37    38    1
    42    38    39    1
    43    38    41    1
    44    39    40    1
    45    41    42    1
    46    42    43    2
    47    42    44   am
    48    44    45    1
    49    44    46    1
    50    45    47    1
#	Name:			CHEMBL2347009
#	Creating user name:	trannguyen
#	Creation time:		Tue Feb  8 18:26:14 2022


#	Modifying user name:	trannguyen
#	Modification time:	Tue Feb  8 18:26:14 2022

@<TRIPOS>MOLECULE
CHEMBL2347009
 38 39 0 0 0
SMALL
GASTEIGER

@<TRIPOS>ATOM
      1 C           4.6754   32.1455    4.4233 C.ar    1  UNL1        0.0629
      2 N           5.3134   32.3979    3.2635 N.ar    1  UNL1       -0.2168
      3 C           6.6353   32.5624    3.3312 C.ar    1  UNL1        0.2387
      4 N           7.4013   32.4840    4.4180 N.ar    1  UNL1       -0.2124
      5 C           6.7595   32.2510    5.5885 C.ar    1  UNL1        0.0853
      6 C           5.3549   32.1287    5.6524 C.ar    1  UNL1        0.0311
      7 C           7.6875   32.1443    6.7570 C.ar    1  UNL1        0.0179
      8 C           8.0590   33.2856    7.5019 C.ar    1  UNL1        0.0038
      9 C           8.9413   33.1993    8.5883 C.ar    1  UNL1        0.0297
     10 C           9.4581   31.9664    8.9576 C.ar    1  UNL1        0.1401
     11 F          10.2928   31.8755    9.9999 F       1  UNL1       -0.2042
     12 C           9.1201   30.8237    8.2561 C.ar    1  UNL1        0.0297
     13 C           8.2676   30.9226    7.1546 C.ar    1  UNL1        0.0038
     14 C           2.4989   33.1813    3.7430 C.3     1  UNL1        0.0063
     15 C           3.1730   31.9268    4.2999 C.3     1  UNL1        0.0404
     16 C           2.8014   30.7029    3.4404 C.3     1  UNL1        0.0063
     17 N           7.2990   32.8886    2.1324 N.pl3   1  UNL1       -0.1605
     18 C           6.5933   33.8842    1.3047 C.3     1  UNL1        0.1420
     19 S           7.9059   31.5275    1.3537 S.O2    1  UNL1        0.0611
     20 C           7.7118   32.0091   -0.3490 C.3     1  UNL1        0.1999
     21 O           9.3424   31.3987    1.5703 O.2     1  UNL1       -0.1541
     22 O           7.0212   30.4178    1.5839 O.2     1  UNL1       -0.1541
     23 C           4.6293   32.0550    6.9339 C.2     1  UNL1        0.0005
     24 C           3.9929   33.1068    7.4788 C.2     1  UNL1        0.0027
     25 C           3.3153   33.0644    8.8238 C.3     1  UNL1        0.1349
     26 O           2.4401   34.1783    8.9288 O.3     1  UNL1       -0.3800
     27 H           2.9271   34.9772    8.6612 H       1  UNL1        0.2108
     28 C           2.4993   31.7835    8.9954 C.3     1  UNL1        0.0635
     29 C           2.9053   30.9136   10.1967 C.3     1  UNL1        0.1224
     30 O           1.8665   31.0628   11.1778 O.3     1  UNL1       -0.3839
     31 H           1.9666   31.9525   11.5622 H       1  UNL1        0.2104
     32 C           3.0118   29.4195    9.8910 C.3     1  UNL1        0.1163
     33 C           1.9780   28.6253   10.6770 C.2     1  UNL1        0.2468
     34 O           2.2206   27.9963   11.7046 O.2     1  UNL1       -0.2730
     35 N           0.7455   28.5850   10.0672 N.am    1  UNL1       -0.1969
     36 O          -0.2936   27.8922   10.7274 O.3     1  UNL1       -0.2952
     37 H           0.4571   29.2673    9.3763 H       1  UNL1        0.1822
     38 H           0.1505   27.5205   11.5191 H       1  UNL1        0.2414
@<TRIPOS>BOND
     1    14    15    1
     2    15    16    1
     3    15     1    1
     4     1     2   ar
     5     1     6   ar
     6     2     3   ar
     7     3    17    1
     8     3     4   ar
     9    17    18    1
    10    17    19    1
    11    19    20    1
    12    19    21    2
    13    19    22    2
    14     4     5   ar
    15     5     7    1
    16     5     6   ar
    17     7     8   ar
    18     7    13   ar
    19     8     9   ar
    20     9    10   ar
    21    10    11    1
    22    10    12   ar
    23    12    13   ar
    24     6    23    1
    25    23    24    2
    26    24    25    1
    27    25    26    1
    28    25    28    1
    29    26    27    1
    30    28    29    1
    31    29    30    1
    32    29    32    1
    33    30    31    1
    34    32    33    1
    35    33    34    2
    36    33    35   am
    37    35    36    1
    38    35    37    1
    39    36    38    1
#	Name:			CHEMBL2347010
#	Creating user name:	trannguyen
#	Creation time:		Tue Feb  8 18:26:14 2022


#	Modifying user name:	trannguyen
#	Modification time:	Tue Feb  8 18:26:14 2022

@<TRIPOS>MOLECULE
CHEMBL2347010
 57 61 0 0 0
SMALL
GASTEIGER

@<TRIPOS>ATOM
      1 C           0.8524   35.6673   10.4293 C.3     1  UNL1        0.0000
      2 C           1.5807   34.3227   10.4774 C.3     1  UNL1        0.0000
      3 C           0.7159   33.2179    9.9467 C.2     1  UNL1        0.0000
      4 C           1.2443   32.0188    9.6358 C.2     1  UNL1        0.0000
      5 C           0.4140   30.9530    9.1383 C.2     1  UNL1        0.0000
      6 C           0.8555   29.6980    9.0334 C.2     1  UNL1        0.0000
      7 C           2.2424   29.2767    9.4367 C.3     1  UNL1        0.0000
      8 C           2.1770   28.6726   10.8450 C.3     1  UNL1        0.0000
      9 C           3.2698   30.4340    9.2638 C.3     1  UNL1        0.0000
     10 C           2.7374   31.7971    9.8226 C.3     1  UNL1        0.0000
     11 C           3.4760   33.0360    9.2367 C.3     1  UNL1        0.0000
     12 C           2.9206   34.3967    9.7265 C.3     1  UNL1        0.0000
     13 O           3.3474   33.0789    7.7878 O.3     1  UNL1        0.0000
     14 C           4.5024   33.1114    7.0691 C.2     1  UNL1        0.0000
     15 O           5.5186   33.6577    7.4566 O.2     1  UNL1        0.0000
     16 N           4.2629   32.5280    5.8523 N.am    1  UNL1        0.0000
     17 H           3.3101   32.2197    5.7223 H       1  UNL1        0.0000
     18 C           5.1377   32.4814    4.7522 C.ar    1  UNL1        0.0000
     19 C           5.4100   33.5987    3.9707 C.ar    1  UNL1        0.0000
     20 C           6.2574   33.5039    2.8642 C.ar    1  UNL1        0.0000
     21 C           6.8429   32.2839    2.5130 C.ar    1  UNL1        0.0000
     22 C           6.5752   31.1583    3.3025 C.ar    1  UNL1        0.0000
     23 C           5.7365   31.2601    4.4231 C.ar    1  UNL1        0.0000
     24 C           7.6917   32.2246    1.3420 C.ar    1  UNL1        0.0000
     25 C           7.5157   32.9046    0.1597 C.ar    1  UNL1        0.0000
     26 N           8.6319   32.5934   -0.5569 N.ar    1  UNL1        0.0000
     27 N           9.4267   31.7374    0.1012 N.ar    1  UNL1        0.0000
     28 N           8.8650   31.5122    1.2803 N.ar    1  UNL1        0.0000
     29 C           9.0413   33.1310   -1.8309 C.3     1  UNL1        0.0000
     30 C           7.9577   32.9921   -2.8944 C.3     1  UNL1        0.0000
     31 C           7.5728   34.3703   -3.4239 C.3     1  UNL1        0.0000
     32 C           8.7059   35.0170   -4.2182 C.3     1  UNL1        0.0000
     33 C           8.3894   35.1264   -5.7126 C.3     1  UNL1        0.0000
     34 C           8.3171   33.7682   -6.4134 C.3     1  UNL1        0.0000
     35 C           6.9150   33.4886   -6.9073 C.2     1  UNL1        0.0000
     36 O           6.0056   34.3002   -6.7387 O.2     1  UNL1        0.0000
     37 N           6.6685   32.2797   -7.4759 N.am    1  UNL1        0.0000
     38 O           7.6855   31.3876   -7.8439 O.3     1  UNL1        0.0000
     39 H           5.7424   32.1089   -7.8564 H       1  UNL1        0.0000
     40 H           8.2269   31.2964   -7.0394 H       1  UNL1        0.0000
     41 C           4.6635   30.0830    9.8632 C.3     1  UNL1        0.0000
     42 C           5.8350   30.5261    8.9678 C.3     1  UNL1        0.0000
     43 C           6.6638   31.6674    9.5776 C.3     1  UNL1        0.0000
     44 C           8.1413   31.4871    9.2447 C.3     1  UNL1        0.0000
     45 C           8.9300   32.6714    9.7987 C.3     1  UNL1        0.0000
     46 C           8.3809   33.1387   11.1515 C.3     1  UNL1        0.0000
     47 C           7.4110   32.2057   11.8143 C.2     1  UNL1        0.0000
     48 O           7.3784   32.0613   13.0337 O.2     1  UNL1        0.0000
     49 O           6.5058   31.5998   11.0113 O.3     1  UNL1        0.0000
     50 O           8.8375   33.7291    8.8230 O.3     1  UNL1        0.0000
     51 SI         10.1394   34.0837    7.8129 Si      1  UNL1        0.0000
     52 C          10.7549   35.8417    8.0821 C.3     1  UNL1        0.0000
     53 C          11.5617   32.8782    8.0054 C.3     1  UNL1        0.0000
     54 C           9.5152   33.9912    5.8272 C.3     1  UNL1        0.0000
     55 C          10.7115   34.3177    4.9091 C.3     1  UNL1        0.0000
     56 C           8.9916   32.5737    5.5233 C.3     1  UNL1        0.0000
     57 C           8.3891   35.0232    5.6138 C.3     1  UNL1        0.0000
@<TRIPOS>BOND
     1     1     2    1
     2     2     3    1
     3     2    12    1
     4     3     4    2
     5     4     5    1
     6     4    10    1
     7     5     6    2
     8     6     7    1
     9     7     8    1
    10     7     9    1
    11     9    41    1
    12     9    10    1
    13    41    42    1
    14    43    44    1
    15    43    49    1
    16    43    42    1
    17    44    45    1
    18    45    46    1
    19    45    50    1
    20    50    51    1
    21    51    52    1
    22    51    53    1
    23    51    54    1
    24    54    55    1
    25    54    56    1
    26    54    57    1
    27    46    47    1
    28    47    48    2
    29    47    49    1
    30    10    11    1
    31    11    12    1
    32    11    13    1
    33    13    14    1
    34    14    15    2
    35    14    16   am
    36    16    18    1
    37    16    17    1
    38    18    19   ar
    39    18    23   ar
    40    19    20   ar
    41    20    21   ar
    42    21    24    1
    43    21    22   ar
    44    24    25   ar
    45    24    28   ar
    46    25    26   ar
    47    26    29    1
    48    26    27   ar
    49    29    30    1
    50    30    31    1
    51    31    32    1
    52    32    33    1
    53    33    34    1
    54    34    35    1
    55    35    36    2
    56    35    37   am
    57    37    38    1
    58    37    39    1
    59    38    40    1
    60    27    28   ar
    61    22    23   ar
#	Name:			CHEMBL2347011
#	Creating user name:	trannguyen
#	Creation time:		Tue Feb  8 18:26:14 2022


#	Modifying user name:	trannguyen
#	Modification time:	Tue Feb  8 18:26:14 2022

@<TRIPOS>MOLECULE
CHEMBL2347011
 58 62 0 0 0
SMALL
GASTEIGER

@<TRIPOS>ATOM
      1 C           6.3926   43.7790   15.5550 C.3     1  UNL1        0.0000
      2 C           5.6787   43.6136   14.2116 C.3     1  UNL1        0.0000
      3 C           5.3272   44.9508   13.5846 C.2     1  UNL1        0.0000
      4 C           5.0583   45.0313   12.2663 C.2     1  UNL1        0.0000
      5 C           5.0479   46.2824   11.5243 C.2     1  UNL1        0.0000
      6 C           5.1518   46.3242   10.1829 C.2     1  UNL1        0.0000
      7 C           5.2689   45.0802    9.3345 C.3     1  UNL1        0.0000
      8 C           4.8828   45.3289    7.8756 C.3     1  UNL1        0.0000
      9 C           4.5148   43.9215   10.0128 C.3     1  UNL1        0.0000
     10 C           5.0169   43.7357   11.4894 C.3     1  UNL1        0.0000
     11 C           6.3586   43.0122   11.7595 C.3     1  UNL1        0.0000
     12 C           6.4700   42.6516   13.2703 C.3     1  UNL1        0.0000
     13 O           7.5208   43.7244   11.2786 O.3     1  UNL1        0.0000
     14 C           8.7118   43.6262   11.9859 C.2     1  UNL1        0.0000
     15 O           9.2970   44.4478   12.5525 O.2     1  UNL1        0.0000
     16 N           9.1231   42.3001   12.0161 N.am    1  UNL1        0.0000
     17 H           9.7152   42.1893   12.8275 H       1  UNL1        0.0000
     18 C           9.6852   41.7076   10.8229 C.3     1  UNL1        0.0000
     19 C           9.4883   40.2259   10.7429 C.ar    1  UNL1        0.0000
     20 C          10.3168   39.4630    9.9126 C.ar    1  UNL1        0.0000
     21 C          10.2136   38.0795    9.9282 C.ar    1  UNL1        0.0000
     22 C           9.2778   37.4668   10.7787 C.ar    1  UNL1        0.0000
     23 C           8.4995   38.2256   11.6450 C.ar    1  UNL1        0.0000
     24 C           8.5924   39.5993   11.6231 C.ar    1  UNL1        0.0000
     25 C           8.9878   36.0653   10.7786 C.ar    1  UNL1        0.0000
     26 C           7.7796   35.4939   10.4939 C.ar    1  UNL1        0.0000
     27 N           8.0425   34.1375   10.5445 N.ar    1  UNL1        0.0000
     28 N           9.3107   33.9244   10.9097 N.ar    1  UNL1        0.0000
     29 N           9.9060   35.0929   11.0233 N.ar    1  UNL1        0.0000
     30 C           7.4937   33.1039    9.6956 C.3     1  UNL1        0.0000
     31 C           6.1837   32.4108    9.9054 C.3     1  UNL1        0.0000
     32 C           6.0640   30.8755    9.6380 C.3     1  UNL1        0.0000
     33 C           4.6993   30.1222    9.6752 C.3     1  UNL1        0.0000
     34 C           4.4946   28.8526   10.5477 C.3     1  UNL1        0.0000
     35 C           3.4819   27.7946   10.1155 C.3     1  UNL1        0.0000
     36 C           2.2388   27.9495   10.9439 C.2     1  UNL1        0.0000
     37 O           2.2340   27.7435   12.1535 O.2     1  UNL1        0.0000
     38 N           1.1258   28.2040   10.1823 N.am    1  UNL1        0.0000
     39 O          -0.1363   28.2781   10.8201 O.3     1  UNL1        0.0000
     40 H           1.1428   28.0395    9.1777 H       1  UNL1        0.0000
     41 H          -0.3487   27.4033   11.2170 H       1  UNL1        0.0000
     42 C           2.9619   44.1490   10.0577 C.3     1  UNL1        0.0000
     43 C           2.0622   43.1305    9.2922 C.3     1  UNL1        0.0000
     44 C           2.7345   42.0372    8.4561 C.3     1  UNL1        0.0000
     45 C           3.1478   42.3827    7.0429 C.3     1  UNL1        0.0000
     46 C           4.2651   41.3798    6.6879 C.3     1  UNL1        0.0000
     47 C           3.6786   39.9723    6.8010 C.3     1  UNL1        0.0000
     48 C           2.8571   39.6908    8.0430 C.2     1  UNL1        0.0000
     49 O           2.7235   38.5453    8.4670 O.2     1  UNL1        0.0000
     50 O           2.1771   40.7319    8.6002 O.3     1  UNL1        0.0000
     51 O           5.5668   41.5935    7.3345 O.3     1  UNL1        0.0000
     52 SI          7.1319   41.5297    6.6626 Si      1  UNL1        0.0000
     53 C           8.3948   42.6594    7.6418 C.3     1  UNL1        0.0000
     54 C           7.8687   39.7922    6.6848 C.3     1  UNL1        0.0000
     55 C           7.3868   42.2914    4.8613 C.3     1  UNL1        0.0000
     56 C           8.8901   42.4237    4.5537 C.3     1  UNL1        0.0000
     57 C           6.7856   41.3409    3.7862 C.3     1  UNL1        0.0000
     58 C           6.7207   43.6733    4.8241 C.3     1  UNL1        0.0000
@<TRIPOS>BOND
     1     1     2    1
     2     2     3    1
     3     2    12    1
     4     3     4    2
     5     4     5    1
     6     4    10    1
     7     5     6    2
     8     6     7    1
     9     7     8    1
    10     7     9    1
    11     9    42    1
    12     9    10    1
    13    42    43    1
    14    44    45    1
    15    44    50    1
    16    44    43    1
    17    45    46    1
    18    46    47    1
    19    46    51    1
    20    51    52    1
    21    52    53    1
    22    52    54    1
    23    52    55    1
    24    55    56    1
    25    55    57    1
    26    55    58    1
    27    47    48    1
    28    48    49    2
    29    48    50    1
    30    10    11    1
    31    11    12    1
    32    11    13    1
    33    13    14    1
    34    14    15    2
    35    14    16   am
    36    16    18    1
    37    16    17    1
    38    18    19    1
    39    19    20   ar
    40    19    24   ar
    41    20    21   ar
    42    21    22   ar
    43    22    25    1
    44    22    23   ar
    45    25    26   ar
    46    25    29   ar
    47    26    27   ar
    48    27    30    1
    49    27    28   ar
    50    30    31    1
    51    31    32    1
    52    32    33    1
    53    33    34    1
    54    34    35    1
    55    35    36    1
    56    36    37    2
    57    36    38   am
    58    38    39    1
    59    38    40    1
    60    39    41    1
    61    28    29   ar
    62    23    24   ar
#	Name:			CHEMBL234926
#	Creating user name:	trannguyen
#	Creation time:		Tue Feb  8 18:26:14 2022


#	Modifying user name:	trannguyen
#	Modification time:	Tue Feb  8 18:26:14 2022

@<TRIPOS>MOLECULE
CHEMBL234926
 5 4 0 0 0
SMALL
GASTEIGER

@<TRIPOS>ATOM
      1 C           2.3018   27.6641   10.8427 C.3     1  UNL1        0.1634
      2 O           2.2118   26.5171   11.6713 O.3     1  UNL1       -0.3772
      3 H           2.3660   25.7468   11.0981 H       1  UNL1        0.2109
      4 C           4.4965   28.6204   10.0911 C.2     1  UNL1       -0.0024
      5 C           3.6073   27.6192   10.1205 C.2     1  UNL1        0.0053
@<TRIPOS>BOND
     1     4     5    2
     2     5     1    1
     3     1     2    1
     4     2     3    1
#	Name:			CHEMBL2367892
#	Creating user name:	trannguyen
#	Creation time:		Tue Feb  8 18:26:14 2022


#	Modifying user name:	trannguyen
#	Modification time:	Tue Feb  8 18:26:14 2022

@<TRIPOS>MOLECULE
CHEMBL2367892
 149 162 0 0 0
SMALL
GASTEIGER

@<TRIPOS>ATOM
      1 C          11.8355   39.7163    5.5850 C.ar    1  UNL1        0.2097
      2 C          10.8341   39.8296    4.2767 C.ar    1  UNL1        0.1819
      3 C          11.1965   40.7391    3.3272 C.ar    1  UNL1        0.0387
      4 C          12.4920   40.5804    3.3324 C.ar    1  UNL1        0.0106
      5 C          12.7300   41.3661    4.5547 C.ar    1  UNL1        0.0387
      6 C          12.3803   40.9071    5.8250 C.ar    1  UNL1        0.1819
      7 O          12.6446   41.4952    7.0255 O.3     1  UNL1       -0.4495
      8 C          11.7889   41.2037    8.0687 C.ar    1  UNL1        0.1559
      9 C          11.7623   40.0717    8.8632 C.ar    1  UNL1        0.0381
     10 C          10.6081   39.6433    9.5044 C.ar    1  UNL1        0.0013
     11 C           9.4972   40.3748    9.2566 C.ar    1  UNL1        0.0078
     12 C           9.8907   41.7378    9.3397 C.ar    1  UNL1        0.0126
     13 C          11.0949   42.1645    8.7212 C.ar    1  UNL1        0.0919
     14 CL         11.8042   43.7256    8.9339 Cl      1  UNL1       -0.0791
     15 C           8.0952   39.6817    9.0243 C.3     1  UNL1        0.1668
     16 CA          7.9186   37.9097    8.7076 C.3     1  UNL1        0.1804
     17 N           8.5291   37.1261    7.5596 N.am    1  UNL1       -0.2945
     18 C           9.5164   37.5522    6.6917 C.2     1  UNL1        0.2450
     19 O           9.8038   38.7356    6.7040 O.2     1  UNL1       -0.2729
     20 CA         10.5401   36.3960    6.0085 C.3     1  UNL1        0.1716
     21 N          11.6423   37.0583    5.2064 N.am    1  UNL1       -0.2934
     22 C          11.7937   37.3345    3.8211 C.2     1  UNL1        0.2452
     23 O          11.3215   36.4409    3.0961 O.2     1  UNL1       -0.2729
     24 CA         12.6344   38.7716    2.9277 C.3     1  UNL1        0.1718
     25 N          13.5139   38.3880    1.6634 N.am    1  UNL1       -0.2934
     26 C          13.7548   39.0608    0.4387 C.2     1  UNL1        0.2452
     27 O          14.2056   40.2124    0.4086 O.2     1  UNL1       -0.2729
     28 CA         13.5666   38.1734   -0.9634 C.3     1  UNL1        0.1718
     29 N          12.7572   37.0215   -0.5455 N.am    1  UNL1       -0.2936
     30 C          12.4880   35.9296   -1.3211 C.2     1  UNL1        0.2412
     31 O          13.2286   35.4688   -2.1879 O.2     1  UNL1       -0.2733
     32 CA         10.9993   35.4192   -1.1388 C.3     1  UNL1        0.1530
     33 C           9.9838   36.6206   -1.2105 C.3     1  UNL1        0.0553
     34 C           9.6567   37.3760    0.0550 C.ar    1  UNL1       -0.0190
     35 C           9.7020   38.7640    0.1480 C.ar    1  UNL1       -0.0010
     36 C           9.5186   39.4124    1.3972 C.ar    1  UNL1        0.0381
     37 C           9.3378   38.6920    2.5989 C.ar    1  UNL1        0.1559
     38 C           8.9301   37.3642    2.3940 C.ar    1  UNL1        0.0918
     39 CL          8.1605   36.4364    3.6233 Cl      1  UNL1       -0.0791
     40 C           9.1552   36.7035    1.1613 C.ar    1  UNL1        0.0103
     41 O           9.6417   39.1066    3.9539 O.3     1  UNL1       -0.4495
     42 N          10.6940   34.4461   -2.1987 N.am    1  UNL1       -0.2967
     43 C           9.4044   33.9508   -2.2524 C.2     1  UNL1        0.2411
     44 O           8.8881   33.4063   -1.2726 O.2     1  UNL1       -0.2733
     45 CA          8.5412   34.3828   -3.4849 C.3     1  UNL1        0.1512
     46 N           7.6996   33.2504   -3.9110 N.3     1  UNL1       -0.3116
     47 C           9.3368   35.0267   -4.6140 C.ar    1  UNL1        0.0037
     48 C           9.8214   34.2566   -5.6774 C.ar    1  UNL1        0.0008
     49 C          10.6475   34.8287   -6.6444 C.ar    1  UNL1        0.0395
     50 C          11.0538   36.1589   -6.5176 C.ar    1  UNL1        0.1683
     51 O          11.8649   36.7151   -7.4674 O.3     1  UNL1       -0.5028
     52 C          10.6348   36.9422   -5.4401 C.ar    1  UNL1        0.1784
     53 C           9.7094   36.3946   -4.5458 C.ar    1  UNL1        0.0381
     54 O          11.0569   38.2564   -5.4008 O.3     1  UNL1       -0.4504
     55 C          11.4817   38.8283   -4.2163 C.ar    1  UNL1        0.1482
     56 C          10.9760   40.1000   -3.9516 C.ar    1  UNL1        0.0740
     57 C          11.3858   40.7699   -2.8073 C.ar    1  UNL1        0.1365
     58 O          10.9067   42.0059   -2.4883 O.3     1  UNL1       -0.5054
     59 C          12.2625   40.1878   -1.8964 C.ar    1  UNL1        0.0346
     60 C          12.7849   38.9066   -2.1054 C.ar    1  UNL1        0.0103
     61 C          12.4368   38.2693   -3.3416 C.ar    1  UNL1        0.0355
     62 C          11.0102   35.6983    7.3174 C.ar    1  UNL1        0.0045
     63 C          11.3503   36.5442    8.3703 C.ar    1  UNL1        0.0009
     64 C          11.1008   36.2978    9.7295 C.ar    1  UNL1        0.0364
     65 C          10.5496   35.1286   10.0995 C.ar    1  UNL1        0.1336
     66 O          10.0980   34.9396   11.3699 O.3     1  UNL1       -0.5055
     67 C          10.2899   34.2291    9.0984 C.ar    1  UNL1        0.0361
     68 C          10.5459   34.4694    7.7106 C.ar    1  UNL1        0.0009
     69 C           9.5852   33.0318    9.4077 C.ar    1  UNL1        0.0353
     70 C          10.4062   31.8477    9.3498 C.ar    1  UNL1        0.1442
     71 C           9.8222   30.7520    8.7637 C.ar    1  UNL1        0.0735
     72 C           8.5055   30.8752    8.2807 C.ar    1  UNL1        0.1365
     73 O           7.9570   29.8689    7.5367 O.3     1  UNL1       -0.5054
     74 C           7.6896   32.0101    8.4818 C.ar    1  UNL1        0.0347
     75 C           8.1787   33.1234    9.1680 C.ar    1  UNL1        0.0123
     76 CA          7.2250   34.3458    9.5403 C.3     1  UNL1        0.1945
     77 N           7.8430   35.6390   10.1249 N.am    1  UNL1       -0.2920
     78 C           8.0141   37.0107   10.0146 C.2     1  UNL1        0.2437
     79 O           8.2941   37.5813   11.0832 O.2     1  UNL1       -0.2732
     80 H           8.4625   36.1228    7.6685 H       1  UNL1        0.1500
     81 H          12.1762   37.6295    5.8304 H       1  UNL1        0.1502
     82 H          13.5844   37.3834    1.5442 H       1  UNL1        0.1502
     83 H          12.0406   37.2969    0.1106 H       1  UNL1        0.1502
     84 H          11.1821   34.6002   -3.0781 H       1  UNL1        0.1499
     85 H1          7.3565   32.7942   -3.0592 H       1  UNL1        0.1195
     86 H2          6.8707   33.6268   -4.3691 H       1  UNL1        0.1195
     87 H          11.9878   36.0761   -8.1871 H       1  UNL1        0.2923
     88 H          10.4844   42.3910   -3.2729 H       1  UNL1        0.2922
     89 H          10.7440   35.3442   11.9733 H       1  UNL1        0.2922
     90 H           8.6767   29.2887    7.2309 H       1  UNL1        0.2922
     91 H           8.1182   35.4200   11.0859 H       1  UNL1        0.1502
     92 C           6.2525   33.8665   10.6995 C.2     1  UNL1        0.3362
     93 O           5.0281   34.1459   10.7111 O.2     1  UNL1       -0.2481
     94 OXT         6.7390   33.0750   11.7164 O.3     1  UNL1       -0.4788
     95 HXT         7.6996   33.0006   11.7880 H       1  UNL1        0.2951
     96 O          13.1439   38.6358    5.5544 O.3     1  UNL1       -0.4448
     97 C          15.1885   36.8365    6.6119 C.3     1  UNL1        0.1718
     98 C          14.7002   38.2512    6.0769 C.3     1  UNL1        0.3089
     99 O          15.8614   38.6897    5.2472 O.3     1  UNL1       -0.3166
    100 C          15.9598   37.9841    4.0302 C.3     1  UNL1        0.1771
    101 C          15.0877   36.7401    4.1187 C.3     1  UNL1        0.1687
    102 O          15.2943   35.8910    3.0035 O.3     1  UNL1       -0.3794
    103 C          15.1224   35.9081    5.4189 C.3     1  UNL1        0.1638
    104 O          13.9070   35.2306    5.6093 O.3     1  UNL1       -0.3800
    105 H          14.7674   36.3119    2.3143 H       1  UNL1        0.2105
    106 H          13.9701   34.2736    5.7279 H       1  UNL1        0.2105
    107 C          16.4678   37.3703    9.1166 C.3     1  UNL1        0.0946
    108 C          15.1931   36.6006    9.1836 C.2     1  UNL1        0.2231
    109 O          14.6320   36.4355   10.1501 O.2     1  UNL1       -0.2751
    110 N          14.7407   36.2957    7.9036 N.am    1  UNL1       -0.2984
    111 H          14.1547   35.4809    7.9584 H       1  UNL1        0.1496
    112 C          17.3375   37.6680    3.4022 C.3     1  UNL1        0.1693
    113 O          17.3000   37.7546    1.9625 O.3     1  UNL1       -0.3794
    114 H          16.5769   37.1681    1.6558 H       1  UNL1        0.2105
    115 O           7.2484   40.3334    7.9563 O.3     1  UNL1       -0.3250
    116 C           7.0331   41.7759    7.9208 C.3     1  UNL1        0.2566
    117 O           5.6805   42.2095    8.1311 O.3     1  UNL1       -0.3265
    118 C           4.8042   41.5999    7.1831 C.3     1  UNL1        0.1760
    119 C           5.5151   41.1533    5.8596 C.3     1  UNL1        0.1686
    120 O           4.6532   40.6547    4.8389 O.3     1  UNL1       -0.3794
    121 C           6.4541   42.2395    5.3521 C.3     1  UNL1        0.1625
    122 O           7.1678   41.7936    4.1838 O.3     1  UNL1       -0.3801
    123 C           7.3970   42.6150    6.5462 C.3     1  UNL1        0.1579
    124 H           4.9470   39.7316    4.6822 H       1  UNL1        0.2105
    125 H           6.5075   41.3645    3.6036 H       1  UNL1        0.2105
    126 N           8.7934   42.7539    6.1770 N.am    1  UNL1       -0.2994
    127 C           9.4436   43.9224    5.9942 C.2     1  UNL1        0.2231
    128 C           8.7487   45.2278    6.2239 C.3     1  UNL1        0.0946
    129 O          10.6280   43.9044    5.6183 O.2     1  UNL1       -0.2751
    130 H           9.2438   41.9449    5.7410 H       1  UNL1        0.1496
    131 C           3.5066   42.4175    7.0268 C.3     1  UNL1        0.1693
    132 O           2.5202   41.6798    6.3150 O.3     1  UNL1       -0.3794
    133 H           2.9877   41.0285    5.7507 H       1  UNL1        0.2105
    134 O          11.7747   31.9639    9.6171 O.3     1  UNL1       -0.4505
    135 C          12.7467   30.9586    9.1630 C.3     1  UNL1        0.3180
    136 O          13.1681   31.1496    7.7638 O.3     1  UNL1       -0.3160
    137 C          14.0893   32.2302    7.4428 C.3     1  UNL1        0.1772
    138 C          14.6500   32.9035    8.6986 C.3     1  UNL1        0.1695
    139 O          13.6844   33.6724    9.4120 O.3     1  UNL1       -0.3794
    140 C          15.1756   31.7303    9.5317 C.3     1  UNL1        0.1728
    141 O          16.1403   32.0946   10.5187 O.3     1  UNL1       -0.3793
    142 C          14.0052   30.8963   10.0777 C.3     1  UNL1        0.2105
    143 O          14.4455   29.5244   10.1743 O.3     1  UNL1       -0.3766
    144 H          12.7881   33.4208    9.0908 H       1  UNL1        0.2105
    145 H          16.1393   33.0642   10.6124 H       1  UNL1        0.2105
    146 H          15.3518   29.5423   10.5358 H       1  UNL1        0.2107
    147 C          15.3581   31.7750    6.6296 C.3     1  UNL1        0.1693
    148 O          15.0814   31.3423    5.3131 O.3     1  UNL1       -0.3794
    149 H          15.9429   31.0683    4.9458 H       1  UNL1        0.2105
@<TRIPOS>BOND
     1   107   108    1
     2   108   109    2
     3   108   110   am
     4   110   111    1
     5    97    98    1
     6    97   103    1
     7    97   110    1
     8    98    99    1
     9    98    96    1
    10    96     1    1
    11     1     2   ar
    12     1     6   ar
    13     2     3   ar
    14     2    41    1
    15     3     4   ar
    16     4     5   ar
    17     4    24    1
    18     5     6   ar
    19     6     7    1
    20     7     8    1
    21     8     9   ar
    22     8    13   ar
    23     9    10   ar
    24    10    11   ar
    25    11    12   ar
    26    11    15    1
    27    12    13   ar
    28    13    14    1
    29    15    16    1
    30    15   115    1
    31   116   117    1
    32   116   123    1
    33   116   115    1
    34   117   118    1
    35   118   119    1
    36   118   131    1
    37   131   132    1
    38   132   133    1
    39   119   121    1
    40   119   120    1
    41   120   124    1
    42   121   122    1
    43   121   123    1
    44   122   125    1
    45   123   126    1
    46   126   127   am
    47   126   130    1
    48   127   128    1
    49   127   129    2
    50    16    17    1
    51    16    78    1
    52    17    18   am
    53    17    80    1
    54    18    19    2
    55    18    20    1
    56    20    21    1
    57    20    62    1
    58    21    22   am
    59    21    81    1
    60    22    23    2
    61    22    24    1
    62    24    25    1
    63    25    26   am
    64    25    82    1
    65    26    27    2
    66    26    28    1
    67    28    29    1
    68    28    60    1
    69    29    30   am
    70    29    83    1
    71    30    31    2
    72    30    32    1
    73    32    33    1
    74    32    42    1
    75    33    34    1
    76    34    35   ar
    77    34    40   ar
    78    35    36   ar
    79    36    37   ar
    80    37    38   ar
    81    37    41    1
    82    38    39    1
    83    38    40   ar
    84    42    43   am
    85    42    84    1
    86    43    44    2
    87    43    45    1
    88    45    47    1
    89    45    46    1
    90    46    85    1
    91    46    86    1
    92    47    48   ar
    93    47    53   ar
    94    48    49   ar
    95    49    50   ar
    96    50    51    1
    97    50    52   ar
    98    51    87    1
    99    52    53   ar
   100    52    54    1
   101    54    55    1
   102    55    56   ar
   103    55    61   ar
   104    56    57   ar
   105    57    58    1
   106    57    59   ar
   107    58    88    1
   108    59    60   ar
   109    60    61   ar
   110    62    63   ar
   111    62    68   ar
   112    63    64   ar
   113    64    65   ar
   114    65    66    1
   115    65    67   ar
   116    66    89    1
   117    67    68   ar
   118    67    69    1
   119    69    70   ar
   120    69    75   ar
   121    70   134    1
   122    70    71   ar
   123   134   135    1
   124   135   136    1
   125   135   142    1
   126   136   137    1
   127   137   147    1
   128   137   138    1
   129   147   148    1
   130   148   149    1
   131   138   140    1
   132   138   139    1
   133   139   144    1
   134   140   142    1
   135   140   141    1
   136   141   145    1
   137   142   143    1
   138   143   146    1
   139    71    72   ar
   140    72    73    1
   141    72    74   ar
   142    73    90    1
   143    74    75   ar
   144    75    76    1
   145    76    92    1
   146    76    77    1
   147    92    93    2
   148    92    94    1
   149    94    95    1
   150    77    78   am
   151    77    91    1
   152    78    79    2
   153    99   100    1
   154   100   101    1
   155   100   112    1
   156   112   113    1
   157   113   114    1
   158   101   103    1
   159   101   102    1
   160   102   105    1
   161   103   104    1
   162   104   106    1
#	Name:			CHEMBL2368201
#	Creating user name:	trannguyen
#	Creation time:		Tue Feb  8 18:26:14 2022


#	Modifying user name:	trannguyen
#	Modification time:	Tue Feb  8 18:26:14 2022

@<TRIPOS>MOLECULE
CHEMBL2368201
 36 40 0 0 0
SMALL
GASTEIGER

@<TRIPOS>ATOM
      1 C           6.4337   32.3758    6.9576 C.ar    1  UNL1        0.0134
      2 C           7.8405   32.1243    6.6626 C.ar    1  UNL1        0.0026
      3 C           8.1930   32.2374    5.2850 C.ar    1  UNL1        0.0191
      4 C           7.3093   32.5648    4.2698 C.ar    1  UNL1        0.0809
      5 N           6.0251   32.7913    4.5550 N.ar    1  UNL1       -0.2497
      6 C           5.5521   32.6714    5.8307 C.ar    1  UNL1        0.0585
      7 C           9.0320   31.8162    7.6178 C.ar    1  UNL1        0.0002
      8 C           9.6128   32.8380    8.4399 C.ar    1  UNL1        0.0023
      9 C          10.5773   32.6079    9.4380 C.ar    1  UNL1        0.0296
     10 C          11.0645   31.3366    9.6187 C.ar    1  UNL1        0.1401
     11 F          11.9822   31.0996   10.5648 F       1  UNL1       -0.2042
     12 C          10.6226   30.3176    8.7958 C.ar    1  UNL1        0.0296
     13 C           9.6295   30.5582    7.8146 C.ar    1  UNL1        0.0023
     14 C           7.7185   32.6924    2.8466 C.ar    1  UNL1        0.0176
     15 C           8.1151   33.9318    2.3096 C.ar    1  UNL1        0.0015
     16 C           8.5126   34.0604    0.9716 C.ar    1  UNL1        0.0000
     17 C           8.5189   32.9504    0.1322 C.ar    1  UNL1        0.0000
     18 C           8.1313   31.7124    0.6305 C.ar    1  UNL1        0.0000
     19 C           7.7361   31.5879    1.9681 C.ar    1  UNL1        0.0015
     20 C           4.0186   32.9622    5.8255 C.3     1  UNL1        0.0403
     21 C           3.0854   31.7656    5.7445 C.3     1  UNL1        0.0059
     22 C           1.6245   32.1486    5.6810 C.3     1  UNL1        0.0004
     23 C           1.3044   32.8044    4.3959 C.3     1  UNL1        0.0000
     24 C           2.0530   34.1040    4.4535 C.3     1  UNL1        0.0004
     25 C           3.5710   33.8830    4.6298 C.3     1  UNL1        0.0059
     26 C           4.8507   31.3934    8.6948 C.2     1  UNL1        0.0168
     27 C           5.8626   32.2189    8.3471 C.2     1  UNL1        0.0001
     28 O           0.9921   29.8159   10.2440 O.2     1  UNL1       -0.2500
     29 C           2.1683   29.6899   10.1939 C.2     1  UNL1        0.3197
     30 C           2.8328   28.2904   10.1621 C.3     1  UNL1        0.1388
     31 C           4.3118   28.2605    9.8846 C.3     1  UNL1        0.1256
     32 O           4.8044   27.0143   10.3785 O.3     1  UNL1       -0.3837
     33 C           4.9934   29.4379   10.5694 C.3     1  UNL1        0.0781
     34 C           4.4737   30.7994   10.0719 C.3     1  UNL1        0.1933
     35 O           3.0136   30.7761   10.1798 O.3     1  UNL1       -0.4475
     36 H           4.3826   26.3085    9.8461 H       1  UNL1        0.2104
@<TRIPOS>BOND
     1    28    29    2
     2    29    30    1
     3    29    35    1
     4    30    31    1
     5    31    32    1
     6    31    33    1
     7    32    36    1
     8    33    34    1
     9    34    35    1
    10    34    26    1
    11    26    27    2
    12    27     1    1
    13     1     2   ar
    14     1     6   ar
    15     2     7    1
    16     2     3   ar
    17     7     8   ar
    18     7    13   ar
    19     8     9   ar
    20     9    10   ar
    21    10    11    1
    22    10    12   ar
    23    12    13   ar
    24     3     4   ar
    25     4    14    1
    26     4     5   ar
    27    14    15   ar
    28    14    19   ar
    29    15    16   ar
    30    16    17   ar
    31    17    18   ar
    32    18    19   ar
    33     5     6   ar
    34     6    20    1
    35    20    21    1
    36    20    25    1
    37    21    22    1
    38    22    23    1
    39    23    24    1
    40    24    25    1
#	Name:			CHEMBL238071
#	Creating user name:	trannguyen
#	Creation time:		Tue Feb  8 18:26:14 2022


#	Modifying user name:	trannguyen
#	Modification time:	Tue Feb  8 18:26:14 2022

@<TRIPOS>MOLECULE
CHEMBL238071
 61 69 0 0 0
SMALL
GASTEIGER

@<TRIPOS>ATOM
      1 C          10.2538   36.6614   -6.7685 C.ar    1  UNL1        0.0262
      2 C          10.1087   36.3670   -5.3762 C.ar    1  UNL1       -0.0034
      3 C          11.1134   35.7090   -4.6387 C.ar    1  UNL1       -0.0066
      4 C          12.3131   35.3766   -5.2368 C.ar    1  UNL1        0.0470
      5 C          12.4916   35.6193   -6.5832 C.ar    1  UNL1        0.0508
      6 C          11.4936   36.2518   -7.3580 C.ar    1  UNL1        0.1367
      7 N          13.2891   34.8469   -4.3707 N.pl3   1  UNL1       -0.3043
      8 C          14.5831   35.5415   -4.4260 C.3     1  UNL1        0.1122
      9 C          12.6244   34.7888   -3.0171 C.3     1  UNL1        0.1131
     10 C          12.6632   33.3171   -2.5123 C.3     1  UNL1        0.1979
     11 O          13.6718   32.5760   -3.3067 O.3     1  UNL1       -0.3749
     12 C          11.3772   32.4875   -2.6901 C.3     1  UNL1        0.1497
     13 O          11.4480   31.8778   -4.0029 O.3     1  UNL1       -0.3811
     14 C           9.9900   33.1902   -2.5037 C.3     1  UNL1        0.0596
     15 C           9.3253   32.6466   -1.2176 C.2     1  UNL1       -0.0262
     16 C           8.9784   33.4180   -0.1730 C.2     1  UNL1       -0.0133
     17 C           9.2883   34.8804   -0.1018 C.3     1  UNL1        0.0985
     18 N          10.4072   35.1815   -1.0030 N.3     1  UNL1       -0.2695
     19 C          10.7180   36.6103   -1.0432 C.3     1  UNL1        0.0728
     20 C          11.2405   36.8575   -2.4508 C.3     1  UNL1        0.0244
     21 C          11.2225   35.4731   -3.1522 C.3     1  UNL1        0.0546
     22 C          10.0990   34.7562   -2.3965 C.3     1  UNL1        0.0691
     23 H          13.8968   33.2082   -4.0244 H       1  UNL1        0.2110
     24 H          12.3876   31.6070   -4.0954 H       1  UNL1        0.2105
     25 C           5.8138   41.0998   -6.0263 C.3     1  UNL1        0.1030
     26 O           4.8322   41.4897   -5.0482 O.3     1  UNL1       -0.3854
     27 C           6.3301   39.6820   -5.6437 C.3     1  UNL1        0.0297
     28 C           7.0529   39.0631   -6.8497 C.3     1  UNL1        0.0196
     29 C           5.9735   38.8617   -7.9124 C.3     1  UNL1        0.0722
     30 N           5.6134   40.1579   -8.4741 N.3     1  UNL1       -0.2704
     31 C           6.6395   40.7447   -9.3583 C.3     1  UNL1        0.0769
     32 C           7.7516   39.8144   -9.9504 C.3     1  UNL1        0.0449
     33 C           9.0740   39.7514   -9.1930 C.ar    1  UNL1       -0.0071
     34 C           9.6287   38.7963   -8.3016 C.ar    1  UNL1        0.0431
     35 N          10.9178   39.2315   -8.0556 N.ar    1  UNL1       -0.3560
     36 H          11.5832   38.7492   -7.4700 H       1  UNL1        0.1657
     37 C          11.1577   40.4723   -8.5821 C.ar    1  UNL1        0.0561
     38 C          12.2860   41.2943   -8.4730 C.ar    1  UNL1        0.0169
     39 C          12.2476   42.5398   -9.1063 C.ar    1  UNL1        0.0015
     40 C          11.1316   42.9344   -9.8367 C.ar    1  UNL1        0.0001
     41 C          10.0245   42.0860   -9.9524 C.ar    1  UNL1        0.0012
     42 C          10.0297   40.8302   -9.3021 C.ar    1  UNL1        0.0127
     43 C           9.0912   37.4759   -7.5850 C.3     1  UNL1        0.1437
     44 C           7.9177   37.8174   -6.5608 C.3     1  UNL1        0.0218
     45 C           5.0865   41.0658   -7.4269 C.3     1  UNL1        0.0993
     46 H           5.2063   41.3337   -4.1649 H       1  UNL1        0.2103
     47 C           6.6098   43.4393   -5.2171 C.3     1  UNL1        0.0025
     48 C           6.9347   42.1729   -6.0096 C.3     1  UNL1        0.0283
     49 C           8.5296   36.5546   -8.7535 C.2     1  UNL1        0.3253
     50 O           8.8453   36.5996   -9.9298 O.2     1  UNL1       -0.2494
     51 O           7.5788   35.6961   -8.2464 O.3     1  UNL1       -0.4439
     52 C           6.4744   35.3933   -9.0983 C.3     1  UNL1        0.2556
     53 C          13.2802   33.2979   -1.0911 C.2     1  UNL1        0.2475
     54 N          13.6565   34.4782   -0.5348 N.am    1  UNL1       -0.3268
     55 O          13.5146   32.2659   -0.4606 O.2     1  UNL1       -0.2727
     56 H          14.1540   34.4097    0.3435 H       1  UNL1        0.1450
     57 H          13.8988   35.2603   -1.1371 H       1  UNL1        0.1450
     58 O          11.6930   36.4714   -8.7034 O.3     1  UNL1       -0.4717
     59 C          12.1394   35.3513   -9.4798 C.3     1  UNL1        0.2525
     60 C           8.9904   32.8624   -3.6734 C.3     1  UNL1        0.0078
     61 C           7.8617   33.8669   -3.9440 C.3     1  UNL1        0.0005
@<TRIPOS>BOND
     1    47    48    1
     2    25    48    1
     3    25    26    1
     4    25    27    1
     5    25    45    1
     6    26    46    1
     7    27    28    1
     8    28    29    1
     9    28    44    1
    10    29    30    1
    11    30    31    1
    12    30    45    1
    13    31    32    1
    14    32    33    1
    15    33    34   ar
    16    33    42   ar
    17    34    35   ar
    18    34    43    1
    19    35    36    1
    20    35    37   ar
    21    37    38   ar
    22    37    42   ar
    23    38    39   ar
    24    39    40   ar
    25    40    41   ar
    26    41    42   ar
    27    43    44    1
    28    43     1    1
    29    43    49    1
    30    49    50    2
    31    49    51    1
    32    51    52    1
    33     1     2   ar
    34     1     6   ar
    35     2     3   ar
    36     3     4   ar
    37     3    21    1
    38     4     5   ar
    39     4     7    1
    40     5     6   ar
    41     6    58    1
    42    58    59    1
    43     7     8    1
    44     7     9    1
    45     9    10    1
    46     9    21    1
    47    10    12    1
    48    10    53    1
    49    10    11    1
    50    11    23    1
    51    53    54   am
    52    53    55    2
    53    54    56    1
    54    54    57    1
    55    12    13    1
    56    12    14    1
    57    13    24    1
    58    14    60    1
    59    14    15    1
    60    14    22    1
    61    60    61    1
    62    15    16    2
    63    16    17    1
    64    17    18    1
    65    18    19    1
    66    18    22    1
    67    19    20    1
    68    21    20    1
    69    21    22    1
#	Name:			CHEMBL2393053
#	Creating user name:	trannguyen
#	Creation time:		Tue Feb  8 18:26:14 2022


#	Modifying user name:	trannguyen
#	Modification time:	Tue Feb  8 18:26:14 2022

@<TRIPOS>MOLECULE
CHEMBL2393053
 28 31 0 0 0
SMALL
GASTEIGER

@<TRIPOS>ATOM
      1 C           4.9906   33.0120    5.8949 C.3     1  UNL1        0.1364
      2 C           4.6418   32.8739    7.3616 C.3     1  UNL1        0.0364
      3 C           5.7734   32.0126    7.9060 C.3     1  UNL1        0.0277
      4 C           5.7538   32.0390    9.4247 C.3     1  UNL1        0.0025
      5 C           6.9843   32.5399    7.1123 C.3     1  UNL1        0.0933
      6 C           7.5989   33.8864    7.5361 C.3     1  UNL1        0.0272
      7 C           9.0263   33.9403    6.9382 C.3     1  UNL1        0.0025
      8 C           9.3020   32.5742    6.2709 C.3     1  UNL1        0.0029
      9 C           9.0353   32.7347    4.7377 C.3     1  UNL1        0.0001
     10 C          10.7525   32.0070    6.3549 C.3     1  UNL1        0.0049
     11 C          11.7764   32.5288    7.3755 C.3     1  UNL1        0.0298
     12 C          13.1022   31.7966    7.1194 C.2     1  UNL1       -0.0406
     13 C          13.9259   32.0881    5.9085 C.3     1  UNL1        0.0265
     14 C          13.4247   30.8907    8.0526 C.2     1  UNL1        0.0293
     15 C          12.4040   31.0187    9.1014 C.2     1  UNL1        0.1765
     16 O          12.3151   30.2300   10.0308 O.2     1  UNL1       -0.2910
     17 C          11.6018   32.2844    8.8902 C.3     1  UNL1        0.0907
     18 C          10.3093   32.2698    9.6456 C.2     1  UNL1        0.0230
     19 C           9.1229   31.7102    9.3565 C.2     1  UNL1       -0.0266
     20 C           8.7290   30.8775    8.1765 C.3     1  UNL1        0.0281
     21 C           8.2276   31.6231    6.9189 C.3     1  UNL1        0.0293
     22 O           6.4000   32.7547    5.7948 O.3     1  UNL1       -0.3566
     23 C           2.2636   33.4090    4.4550 C.3     1  UNL1        0.0261
     24 C           3.1187   32.1745    4.3745 C.2     1  UNL1       -0.0455
     25 C           2.5584   31.0827    3.5023 C.3     1  UNL1        0.0261
     26 C           4.2905   32.0096    5.0211 C.2     1  UNL1       -0.0056
     27 C          10.3358   32.9950   10.9609 C.2     1  UNL1        0.2300
     28 O           9.3272   33.2579   11.6049 O.2     1  UNL1       -0.2835
@<TRIPOS>BOND
     1    23    24    1
     2    24    25    1
     3    24    26    2
     4     1     2    1
     5     1    22    1
     6     1    26    1
     7     2     3    1
     8     3     5    1
     9     3     4    1
    10     5     6    1
    11     5    21    1
    12     5    22    1
    13     6     7    1
    14     7     8    1
    15     8    10    1
    16     8    21    1
    17     8     9    1
    18    10    11    1
    19    11    12    1
    20    11    17    1
    21    12    14    2
    22    12    13    1
    23    14    15    1
    24    15    17    1
    25    15    16    2
    26    17    18    1
    27    18    19    2
    28    18    27    1
    29    27    28    2
    30    19    20    1
    31    20    21    1
#	Name:			CHEMBL23
#	Creating user name:	trannguyen
#	Creation time:		Tue Feb  8 18:26:14 2022


#	Modifying user name:	trannguyen
#	Modification time:	Tue Feb  8 18:26:14 2022

@<TRIPOS>MOLECULE
CHEMBL23
 29 31 0 0 0
SMALL
GASTEIGER

@<TRIPOS>ATOM
      1 C           6.6341   32.1072    7.6185 C.3     1  UNL1        0.1232
      2 S           6.2500   33.2339    6.2649 S.3     1  UNL1       -0.1046
      3 C           4.6811   32.5215    5.8392 C.ar    1  UNL1        0.0393
      4 C           4.5357   32.3806    4.4410 C.ar    1  UNL1        0.0074
      5 C           3.4870   31.6597    3.8890 C.ar    1  UNL1        0.0006
      6 C           2.5836   31.0430    4.7343 C.ar    1  UNL1        0.0013
      7 C           2.6814   31.2332    6.1174 C.ar    1  UNL1        0.0154
      8 C           3.6858   32.0310    6.7133 C.ar    1  UNL1        0.0596
      9 N           3.5366   32.3153    8.1303 N.am    1  UNL1       -0.2538
     10 C           4.4909   32.6838    9.0782 C.2     1  UNL1        0.2709
     11 O           4.1108   33.0559   10.2074 O.2     1  UNL1       -0.2706
     12 C           6.0176   32.5786    8.9266 C.3     1  UNL1        0.2585
     13 C          10.9136   31.3450    7.7620 C.ar    1  UNL1        0.1387
     14 C          10.3764   32.3015    6.9024 C.ar    1  UNL1        0.0366
     15 C           9.0021   32.5367    6.8736 C.ar    1  UNL1       -0.0002
     16 C           8.1296   31.8214    7.7059 C.ar    1  UNL1       -0.0080
     17 C           8.6816   30.8731    8.5822 C.ar    1  UNL1       -0.0002
     18 C          10.0598   30.6336    8.6041 C.ar    1  UNL1        0.0366
     19 C          12.9379   31.6532    8.9402 C.3     1  UNL1        0.2525
     20 O          12.2431   31.0341    7.8619 O.3     1  UNL1       -0.4714
     21 C           2.1252   32.6102    8.5712 C.3     1  UNL1        0.1156
     22 C           1.5585   31.6423    9.6480 C.3     1  UNL1        0.0943
     23 N           1.7154   30.1925    9.3576 N.3     1  UNL1       -0.2688
     24 C           2.7165   29.6183   10.2675 C.3     1  UNL1        0.0897
     25 C           0.4548   29.4567    9.5159 C.3     1  UNL1        0.0897
     26 O           6.6869   33.7330    9.5070 O.3     1  UNL1       -0.4415
     27 C           7.3460   33.5760   10.6914 C.2     1  UNL1        0.3179
     28 C           8.7411   34.1023   10.5863 C.3     1  UNL1        0.1212
     29 O           6.8828   33.1242   11.7131 O.2     1  UNL1       -0.2501
@<TRIPOS>BOND
     1    19    20    1
     2    20    13    1
     3    13    14   ar
     4    13    18   ar
     5    14    15   ar
     6    15    16   ar
     7    16    17   ar
     8     1     2    1
     9     1    12    1
    10     1    16    1
    11     2     3    1
    12     3     4   ar
    13     3     8   ar
    14     4     5   ar
    15     5     6   ar
    16     6     7   ar
    17     7     8   ar
    18     8     9    1
    19     9    21    1
    20     9    10   am
    21    21    22    1
    22    22    23    1
    23    23    24    1
    24    23    25    1
    25    10    11    2
    26    10    12    1
    27    12    26    1
    28    26    27    1
    29    27    28    1
    30    27    29    2
    31    17    18   ar
#	Name:			CHEMBL241694
#	Creating user name:	trannguyen
#	Creation time:		Tue Feb  8 18:26:14 2022


#	Modifying user name:	trannguyen
#	Modification time:	Tue Feb  8 18:26:14 2022

@<TRIPOS>MOLECULE
CHEMBL241694
 24 27 0 0 0
SMALL
GASTEIGER

@<TRIPOS>ATOM
      1 C           8.9424   33.1760    9.0576 C.3     1  UNL1        0.1420
      2 O          10.0619   32.3147    8.9762 O.3     1  UNL1       -0.3753
      3 C           7.8791   32.3731    9.7906 C.3     1  UNL1        0.0395
      4 C           6.6966   33.3035    9.6337 C.3     1  UNL1        0.0035
      5 C           6.6074   33.3777    8.1050 C.3     1  UNL1        0.0032
      6 C           5.8059   32.1024    7.7031 C.3     1  UNL1        0.0007
      7 C           4.3737   32.2466    8.2651 C.3     1  UNL1        0.0044
      8 C           3.5569   33.1646    7.3988 C.3     1  UNL1        0.0221
      9 C           3.5193   32.4075    6.1342 C.2     1  UNL1       -0.0420
     10 C           2.5451   31.4720    6.0842 C.2     1  UNL1        0.0289
     11 C           1.8826   31.9851    4.8746 C.2     1  UNL1        0.1725
     12 O           0.7962   32.5447    4.9441 O.2     1  UNL1       -0.2914
     13 C           2.7054   31.7842    3.6238 C.3     1  UNL1        0.0694
     14 C           4.2621   31.6181    3.9373 C.3     1  UNL1        0.0118
     15 C           4.7865   32.3454    5.2679 C.3     1  UNL1        0.0157
     16 C           5.3249   33.7066    4.8003 C.3     1  UNL1        0.0041
     17 C           5.8916   31.6489    6.2123 C.3     1  UNL1        0.0035
     18 C           7.4221   31.5560    5.9132 C.3     1  UNL1        0.0004
     19 C           8.4109   32.6609    6.3897 C.3     1  UNL1        0.0032
     20 C           8.1218   33.5221    7.6744 C.3     1  UNL1        0.0333
     21 C           8.3760   34.9944    7.2242 C.3     1  UNL1        0.0033
     22 H          10.2551   32.0891    9.9119 H       1  UNL1        0.2114
     23 C           9.9794   35.0511   10.6681 C.1     1  UNL1       -0.0119
     24 C           9.3155   34.2529   10.0081 C.1     1  UNL1       -0.0526
@<TRIPOS>BOND
     1    23    24    3
     2     1     3    1
     3     1    20    1
     4     1     2    1
     5     1    24    1
     6     2    22    1
     7     3     4    1
     8     4     5    1
     9     5     6    1
    10     5    20    1
    11     6     7    1
    12     6    17    1
    13     7     8    1
    14     8     9    1
    15     9    10    2
    16     9    15    1
    17    10    11    1
    18    11    13    1
    19    11    12    2
    20    13    14    1
    21    14    15    1
    22    15    17    1
    23    15    16    1
    24    17    18    1
    25    18    19    1
    26    19    20    1
    27    20    21    1
#	Name:			CHEMBL242273
#	Creating user name:	trannguyen
#	Creation time:		Tue Feb  8 18:26:14 2022


#	Modifying user name:	trannguyen
#	Modification time:	Tue Feb  8 18:26:14 2022

@<TRIPOS>MOLECULE
CHEMBL242273
 12 13 0 0 0
SMALL
GASTEIGER

@<TRIPOS>ATOM
      1 C           2.3960   31.0479    8.2212 C.ar    1  UNL1       -0.0146
      2 C           3.6981   30.8807    8.7480 C.ar    1  UNL1       -0.0006
      3 C           3.9365   30.0120    9.8176 C.ar    1  UNL1        0.0399
      4 C           2.8624   29.3210   10.3334 C.ar    1  UNL1        0.1764
      5 C           1.5946   29.4681    9.8226 C.ar    1  UNL1        0.1761
      6 C           1.3283   30.3172    8.7690 C.ar    1  UNL1        0.0363
      7 O           0.6814   28.6951   10.4692 O.3     1  UNL1       -0.4346
      8 C           1.5214   28.0433   11.4443 C.3     1  UNL1        0.4294
      9 O           2.9067   28.4379   11.3665 O.3     1  UNL1       -0.4346
     10 C           2.1631   31.9803    7.0552 C.3     1  UNL1        0.0524
     11 C           2.9263   31.1884    4.7972 C.2     1  UNL1       -0.0046
     12 C           1.9970   31.2387    5.7596 C.2     1  UNL1       -0.0214
@<TRIPOS>BOND
     1    11    12    2
     2    12    10    1
     3    10     1    1
     4     1     2   ar
     5     1     6   ar
     6     2     3   ar
     7     3     4   ar
     8     4     5   ar
     9     4     9    1
    10     5     6   ar
    11     5     7    1
    12     7     8    1
    13     8     9    1
#	Name:			CHEMBL24441
#	Creating user name:	trannguyen
#	Creation time:		Tue Feb  8 18:26:14 2022


#	Modifying user name:	trannguyen
#	Modification time:	Tue Feb  8 18:26:14 2022

@<TRIPOS>MOLECULE
CHEMBL24441
 11 11 0 0 0
SMALL
GASTEIGER

@<TRIPOS>ATOM
      1 C           4.1829   29.3175   10.2215 C.ar    1  UNL1        0.0604
      2 C           3.9746   27.9461   10.0870 C.ar    1  UNL1        0.0148
      3 C           2.6835   27.4445   10.2345 C.ar    1  UNL1        0.0028
      4 C           1.6399   28.3187   10.5073 C.ar    1  UNL1        0.0207
      5 C           1.9307   29.6675   10.6175 C.ar    1  UNL1        0.0984
      6 N           3.1723   30.1839   10.4759 N.ar    1  UNL1       -0.2481
      7 C           5.5643   29.9025   10.0628 C.3     1  UNL1        0.0629
      8 C           5.5207   31.2251    9.2903 C.3     1  UNL1        0.0750
      9 C           6.9595   32.6498   10.5970 C.3     1  UNL1        0.0859
     10 N           5.5815   32.3720   10.2085 N.3     1  UNL1       -0.2960
     11 H           5.1984   33.1944    9.7406 H       1  UNL1        0.1233
@<TRIPOS>BOND
     1     9    10    1
     2    10     8    1
     3    10    11    1
     4     8     7    1
     5     7     1    1
     6     1     2   ar
     7     1     6   ar
     8     2     3   ar
     9     3     4   ar
    10     4     5   ar
    11     5     6   ar
#	Name:			CHEMBL245416
#	Creating user name:	trannguyen
#	Creation time:		Tue Feb  8 18:26:14 2022


#	Modifying user name:	trannguyen
#	Modification time:	Tue Feb  8 18:26:14 2022

@<TRIPOS>MOLECULE
CHEMBL245416
 18 18 0 0 0
SMALL
GASTEIGER

@<TRIPOS>ATOM
      1 C           1.7916   30.1203   10.5283 C.3     1  UNL1        0.1330
      2 N           2.3406   30.7589    9.3075 N.ar    1  UNL1       -0.3203
      3 C           3.6934   31.0775    9.2138 C.ar    1  UNL1        0.0794
      4 C           4.2509   31.7323    8.1859 C.ar    1  UNL1        0.0639
      5 C           3.3718   32.1478    7.0684 C.ar    1  UNL1        0.2320
      6 O           3.7972   32.7551    6.0900 O.2     1  UNL1       -0.2832
      7 C           1.9225   31.8050    7.1672 C.ar    1  UNL1        0.1905
      8 O           1.0726   32.1757    6.1479 O.3     1  UNL1       -0.5018
      9 C           1.5089   31.1547    8.2623 C.ar    1  UNL1        0.1165
     10 H           1.6465   32.6446    5.5049 H       1  UNL1        0.2924
     11 N          -0.2692   28.6100   10.4117 N.3     1  UNL1       -0.3118
     12 CA          1.2222   28.7164   10.2403 C.3     1  UNL1        0.1737
     13 H1         -0.6785   29.1064    9.6097 H       1  UNL1        0.1193
     14 H2         -0.5416   29.2006   11.2049 H       1  UNL1        0.1193
     15 C           1.8891   27.7143   11.1867 C.2     1  UNL1        0.3299
     16 O           2.1232   27.9136   12.3705 O.2     1  UNL1       -0.2487
     17 OXT         2.2062   26.5576   10.5499 O.3     1  UNL1       -0.4792
     18 HXT         1.9527   26.6877    9.6008 H       1  UNL1        0.2951
@<TRIPOS>BOND
     1    11    12    1
     2    11    13    1
     3    11    14    1
     4    12     1    1
     5    12    15    1
     6     1     2    1
     7     2     3   ar
     8     2     9   ar
     9     3     4   ar
    10     4     5   ar
    11     5     6    2
    12     5     7   ar
    13     7     8    1
    14     7     9   ar
    15     8    10    1
    16    15    16    2
    17    15    17    1
    18    17    18    1
#	Name:			CHEMBL248702
#	Creating user name:	trannguyen
#	Creation time:		Tue Feb  8 18:26:14 2022


#	Modifying user name:	trannguyen
#	Modification time:	Tue Feb  8 18:26:14 2022

@<TRIPOS>MOLECULE
CHEMBL248702
 17 17 0 0 0
SMALL
GASTEIGER

@<TRIPOS>ATOM
      1 C           3.8831   31.5221    8.8560 C.ar    1  UNL1       -0.0209
      2 C           5.1992   31.2869    9.2739 C.ar    1  UNL1       -0.0042
      3 C           5.5368   30.1186    9.9593 C.ar    1  UNL1       -0.0004
      4 C           4.5564   29.1665   10.2359 C.ar    1  UNL1        0.0038
      5 C           3.2332   29.3723    9.8280 C.ar    1  UNL1        0.0711
      6 C           2.9035   30.5569    9.1389 C.ar    1  UNL1       -0.0004
      7 C           2.1636   28.3483   10.1219 C.3     1  UNL1        0.4186
      8 F           1.8212   28.2786   11.4412 F       1  UNL1       -0.1659
      9 F           1.0038   28.5947    9.4522 F       1  UNL1       -0.1659
     10 F           2.5366   27.0864    9.7705 F       1  UNL1       -0.1659
     11 C           3.5351   32.8158    8.1447 C.3     1  UNL1        0.0420
     12 C           3.5379   32.7635    6.5928 C.3     1  UNL1        0.0584
     13 C           4.9555   32.5131    6.0630 C.3     1  UNL1        0.0174
     14 N           2.9875   34.0413    6.0848 N.3     1  UNL1       -0.2983
     15 H           2.2447   34.3596    6.7089 H       1  UNL1        0.1232
     16 C           1.4669   32.8025    4.6092 C.3     1  UNL1        0.0185
     17 C           2.4550   33.9558    4.7237 C.3     1  UNL1        0.0686
@<TRIPOS>BOND
     1    16    17    1
     2    17    14    1
     3    14    12    1
     4    14    15    1
     5    12    13    1
     6    12    11    1
     7    11     1    1
     8     1     2   ar
     9     1     6   ar
    10     2     3   ar
    11     3     4   ar
    12     4     5   ar
    13     5     7    1
    14     5     6   ar
    15     7     8    1
    16     7     9    1
    17     7    10    1
#	Name:			CHEMBL24944
#	Creating user name:	trannguyen
#	Creation time:		Tue Feb  8 18:26:14 2022


#	Modifying user name:	trannguyen
#	Modification time:	Tue Feb  8 18:26:14 2022

@<TRIPOS>MOLECULE
CHEMBL24944
 21 22 0 0 0
SMALL
GASTEIGER

@<TRIPOS>ATOM
      1 O           5.8129   30.7440   10.7295 O.2     1  UNL1       -0.2697
      2 C           5.5764   30.9176    9.5333 C.2     1  UNL1        0.2525
      3 N           6.4891   31.2442    8.5484 N.am    1  UNL1       -0.2803
      4 H           6.1226   31.3234    7.6074 H       1  UNL1        0.1552
      5 C           4.1580   30.7944    9.1085 C.ar    1  UNL1        0.0883
      6 C           3.7711   31.4835    7.9453 C.ar    1  UNL1        0.0143
      7 C           2.4601   31.3902    7.4830 C.ar    1  UNL1        0.0354
      8 BR          1.9548   32.2954    5.9038 Br      1  UNL1       -0.0490
      9 C           1.5229   30.6168    8.1654 C.ar    1  UNL1        0.0164
     10 C           1.8995   29.9520    9.3304 C.ar    1  UNL1        0.0688
     11 BR          0.6199   28.8920   10.2387 Br      1  UNL1       -0.0458
     12 C           3.2148   30.0386    9.8096 C.ar    1  UNL1        0.1441
     13 O           3.5808   29.3738   10.9529 O.3     1  UNL1       -0.5049
     14 H           2.7882   28.9296   11.3107 H       1  UNL1        0.2922
     15 C           7.8823   31.3831    8.7039 C.ar    1  UNL1        0.0506
     16 C           8.4484   32.2844    9.6052 C.ar    1  UNL1        0.0152
     17 C           9.8297   32.3947    9.7416 C.ar    1  UNL1        0.0080
     18 C          10.6628   31.5985    8.9681 C.ar    1  UNL1        0.0346
     19 BR         12.5345   31.7678    9.1571 Br      1  UNL1       -0.0490
     20 C          10.1234   30.6877    8.0610 C.ar    1  UNL1        0.0080
     21 C           8.7315   30.5784    7.9294 C.ar    1  UNL1        0.0152
@<TRIPOS>BOND
     1     1     2    2
     2     2     3   am
     3     2     5    1
     4     3    15    1
     5     3     4    1
     6    15    16   ar
     7    15    21   ar
     8    16    17   ar
     9    17    18   ar
    10    18    19    1
    11    18    20   ar
    12    20    21   ar
    13     5     6   ar
    14     5    12   ar
    15     6     7   ar
    16     7     8    1
    17     7     9   ar
    18     9    10   ar
    19    10    11    1
    20    10    12   ar
    21    12    13    1
    22    13    14    1
#	Name:			CHEMBL24
#	Creating user name:	trannguyen
#	Creation time:		Tue Feb  8 18:26:14 2022


#	Modifying user name:	trannguyen
#	Modification time:	Tue Feb  8 18:26:14 2022

@<TRIPOS>MOLECULE
CHEMBL24
 23 23 0 0 0
SMALL
GASTEIGER

@<TRIPOS>ATOM
      1 C           5.0655   31.1882    9.2664 C.ar    1  UNL1        0.1387
      2 C           5.6290   30.0713    9.8748 C.ar    1  UNL1        0.0366
      3 C           4.8411   28.9528   10.1704 C.ar    1  UNL1       -0.0007
      4 C           3.4678   28.9254    9.8875 C.ar    1  UNL1       -0.0129
      5 C           2.9078   30.0460    9.2591 C.ar    1  UNL1       -0.0007
      6 C           3.7029   31.1612    8.9508 C.ar    1  UNL1        0.0366
      7 O           5.7273   32.3404    8.9297 O.3     1  UNL1       -0.4728
      8 C           6.9600   32.6150    9.6072 C.3     1  UNL1        0.2358
      9 C           6.7774   33.7748   10.6123 C.3     1  UNL1        0.1697
     10 O           6.4942   33.2209   11.9035 O.3     1  UNL1       -0.3793
     11 H           6.2679   33.9796   12.4749 H       1  UNL1        0.2106
     12 C           5.6478   34.7432   10.1796 C.3     1  UNL1        0.1020
     13 N           4.4487   34.7180   11.0596 N.3     1  UNL1       -0.2964
     14 H           4.3786   35.6125   11.5487 H       1  UNL1        0.1233
     15 C           2.0569   35.3900   10.7815 C.3     1  UNL1        0.0171
     16 C           3.2085   34.5209   10.2662 C.3     1  UNL1        0.0541
     17 C           3.4346   34.8217    8.7777 C.3     1  UNL1        0.0171
     18 C           2.5932   27.7407   10.2515 C.3     1  UNL1        0.1111
     19 C           1.5799   28.0300   11.3513 C.2     1  UNL1        0.2238
     20 N           0.3233   28.3624   10.9175 N.am    1  UNL1       -0.3285
     21 O           1.8503   28.0437   12.5384 O.2     1  UNL1       -0.2750
     22 H           0.1106   28.5328    9.9451 H       1  UNL1        0.1450
     23 H          -0.3267   28.6947   11.6188 H       1  UNL1        0.1450
@<TRIPOS>BOND
     1    15    16    1
     2    16    17    1
     3    16    13    1
     4    13    12    1
     5    13    14    1
     6    12     9    1
     7     9    10    1
     8     9     8    1
     9    10    11    1
    10     8     7    1
    11     7     1    1
    12     1     2   ar
    13     1     6   ar
    14     2     3   ar
    15     3     4   ar
    16     4    18    1
    17     4     5   ar
    18    18    19    1
    19    19    20   am
    20    19    21    2
    21    20    22    1
    22    20    23    1
    23     5     6   ar
#	Name:			CHEMBL252556
#	Creating user name:	trannguyen
#	Creation time:		Tue Feb  8 18:26:14 2022


#	Modifying user name:	trannguyen
#	Modification time:	Tue Feb  8 18:26:14 2022

@<TRIPOS>MOLECULE
CHEMBL252556
 25 25 0 0 0
SMALL
GASTEIGER

@<TRIPOS>ATOM
      1 C           3.4946   29.2368   10.4702 C.2     1  UNL1        0.2140
      2 C           2.3885   29.9607   10.2396 C.2     1  UNL1        0.2140
      3 C           2.5813   31.3893    9.7601 C.2     1  UNL1        0.2282
      4 O           1.7849   32.2597   10.0140 O.2     1  UNL1       -0.2836
      5 C           3.8125   31.6565    8.9168 C.2     1  UNL1        0.0191
      6 C           4.8725   30.8513    9.1447 C.2     1  UNL1        0.0195
      7 C           6.2200   30.8768    8.4667 C.3     1  UNL1        0.0343
      8 C           4.8031   29.9539   10.3071 C.2     1  UNL1        0.2282
      9 O           5.7360   29.8366   11.0602 O.2     1  UNL1       -0.2836
     10 C           3.1561   26.9943    9.7432 C.3     1  UNL1        0.2528
     11 O           3.4654   27.8926   10.8004 O.2     1  UNL1       -0.4652
     12 O           1.0647   29.5751   10.3827 O.2     1  UNL1       -0.4652
     13 C           0.1707   29.5896    9.2687 C.3     1  UNL1        0.2528
     14 C           3.8266   32.9538    8.1193 C.3     1  UNL1        0.0295
     15 C           3.1053   33.0791    6.7613 C.3     1  UNL1        0.0048
     16 C           2.5346   31.8254    6.0690 C.3     1  UNL1        0.0003
     17 C           3.1817   31.4406    4.7344 C.3     1  UNL1        0.0000
     18 C           4.5060   32.1869    4.4265 C.3     1  UNL1        0.0000
     19 C           5.9024   31.5345    4.5630 C.3     1  UNL1        0.0000
     20 C           6.6343   31.3395    3.2206 C.3     1  UNL1        0.0001
     21 C           7.7146   32.4067    2.9154 C.3     1  UNL1        0.0026
     22 C           7.6509   32.8620    1.4583 C.3     1  UNL1        0.0317
     23 C           8.4342   32.0352    0.4476 C.3     1  UNL1        0.1372
     24 O           7.5050   31.1833   -0.2239 O.3     1  UNL1       -0.3820
     25 H           7.4700   31.4476   -1.1588 H       1  UNL1        0.2104
@<TRIPOS>BOND
     1    10    11    1
     2    11     1    1
     3     1     2    2
     4     1     8    1
     5     2    12    1
     6     2     3    1
     7    12    13    1
     8     3     4    2
     9     3     5    1
    10     5    14    1
    11     5     6    2
    12    14    15    1
    13    15    16    1
    14    16    17    1
    15    17    18    1
    16    18    19    1
    17    19    20    1
    18    20    21    1
    19    21    22    1
    20    22    23    1
    21    23    24    1
    22    24    25    1
    23     6     7    1
    24     6     8    1
    25     8     9    2
#	Name:			CHEMBL252557
#	Creating user name:	trannguyen
#	Creation time:		Tue Feb  8 18:26:14 2022


#	Modifying user name:	trannguyen
#	Modification time:	Tue Feb  8 18:26:14 2022

@<TRIPOS>MOLECULE
CHEMBL252557
 7 6 0 0 0
SMALL
GASTEIGER

@<TRIPOS>ATOM
      1 O           1.8810   27.6758   12.1917 O.2     1  UNL1       -0.2475
      2 C           1.3442   28.2943   11.2874 C.2     1  UNL1        0.3441
      3 O           0.0809   28.0462   10.8551 O.3     1  UNL1       -0.4785
      4 H          -0.1280   28.6882   10.1363 H       1  UNL1        0.2951
      5 C           1.9783   29.4420   10.5172 C.3     1  UNL1        0.2478
      6 O           1.8458   30.6525   11.2713 O.3     1  UNL1       -0.3722
      7 H           0.9910   31.0479   11.0120 H       1  UNL1        0.2111
@<TRIPOS>BOND
     1     1     2    2
     2     2     3    1
     3     2     5    1
     4     3     4    1
     5     5     6    1
     6     6     7    1
#	Name:			CHEMBL253376
#	Creating user name:	trannguyen
#	Creation time:		Tue Feb  8 18:26:14 2022


#	Modifying user name:	trannguyen
#	Modification time:	Tue Feb  8 18:26:14 2022

@<TRIPOS>MOLECULE
CHEMBL253376
 20 21 0 0 0
SMALL
GASTEIGER

@<TRIPOS>ATOM
      1 C           3.4559   32.3483    7.7196 C.ar    1  UNL1        0.0078
      2 C           4.8584   32.3291    7.8660 C.ar    1  UNL1        0.0050
      3 C           5.6985   32.5310    6.7748 C.ar    1  UNL1        0.0349
      4 BR          7.5747   32.4842    7.0125 Br      1  UNL1       -0.0490
      5 C           5.1723   32.7530    5.5064 C.ar    1  UNL1        0.0146
      6 C           3.7863   32.7263    5.3382 C.ar    1  UNL1        0.0477
      7 BR          3.1126   33.0102    3.5825 Br      1  UNL1       -0.0477
      8 C           2.9087   32.5431    6.4292 C.ar    1  UNL1        0.0451
      9 N           1.5291   32.3265    6.2121 N.pl3   1  UNL1       -0.3568
     10 H           1.2108   32.7102    5.3276 H       1  UNL1        0.1424
     11 H           0.9626   32.6128    6.9983 H       1  UNL1        0.1424
     12 C           2.5895   32.1573    8.9625 C.3     1  UNL1        0.1004
     13 C           0.5417   30.8548    8.9742 C.3     1  UNL1        0.0899
     14 N           1.9953   30.8014    9.0904 N.3     1  UNL1       -0.2690
     15 C           2.5101   30.0711   10.2768 C.3     1  UNL1        0.0578
     16 C           1.8264   28.7399   10.6648 C.3     1  UNL1        0.0160
     17 C           2.4218   27.4805   10.0394 C.3     1  UNL1        0.0014
     18 C           3.9331   27.4131   10.2149 C.3     1  UNL1        0.0001
     19 C           4.6152   28.6471    9.6467 C.3     1  UNL1        0.0014
     20 C           4.0546   29.9363   10.2480 C.3     1  UNL1        0.0160
@<TRIPOS>BOND
     1    13    14    1
     2    14    12    1
     3    14    15    1
     4    12     1    1
     5     1     2   ar
     6     1     8   ar
     7     2     3   ar
     8     3     4    1
     9     3     5   ar
    10     5     6   ar
    11     6     7    1
    12     6     8   ar
    13     8     9    1
    14     9    10    1
    15     9    11    1
    16    15    16    1
    17    15    20    1
    18    16    17    1
    19    17    18    1
    20    18    19    1
    21    19    20    1
#	Name:			CHEMBL254219
#	Creating user name:	trannguyen
#	Creation time:		Tue Feb  8 18:26:14 2022


#	Modifying user name:	trannguyen
#	Modification time:	Tue Feb  8 18:26:14 2022

@<TRIPOS>MOLECULE
CHEMBL254219
 59 66 0 0 0
SMALL
GASTEIGER

@<TRIPOS>ATOM
      1 C           8.7273   34.0903   -1.0053 C.3     1  UNL1        0.1715
      2 C           8.0179   34.0346   -2.3311 C.3     1  UNL1        0.1450
      3 O           7.1147   32.9391   -2.3848 O.3     1  UNL1       -0.3817
      4 C           7.4647   35.4654   -2.5766 C.3     1  UNL1        0.0931
      5 C           8.3273   36.5914   -1.9043 C.3     1  UNL1        0.2376
      6 O           9.6484   36.1766   -2.0551 O.3     1  UNL1       -0.3304
      7 C           9.9707   34.9747   -1.4096 C.3     1  UNL1        0.1473
      8 C          10.9606   34.3034   -2.4053 C.3     1  UNL1        0.0348
      9 H           6.2630   33.2102   -2.0164 H       1  UNL1        0.2104
     10 O           7.7422   34.6633   -0.0313 O.3     1  UNL1       -0.3279
     11 C           6.8092   32.3124    3.3053 C.3     1  UNL1        0.1715
     12 C           7.5239   31.5221    2.2178 C.3     1  UNL1        0.1450
     13 O           6.9307   30.2324    1.9846 O.3     1  UNL1       -0.3817
     14 C           7.4690   32.3934    1.0120 C.3     1  UNL1        0.0931
     15 C           7.4506   33.9692    1.2010 C.3     1  UNL1        0.2377
     16 O           8.2043   34.2938    2.3440 O.3     1  UNL1       -0.3304
     17 C           7.7280   33.5910    3.5371 C.3     1  UNL1        0.1473
     18 C           9.1089   33.2217    4.1090 C.3     1  UNL1        0.0348
     19 H           6.0916   30.3138    1.5013 H       1  UNL1        0.2104
     20 O           5.3480   32.4181    3.0376 O.3     1  UNL1       -0.3279
     21 C           3.3682   33.0729    7.3085 C.3     1  UNL1        0.0348
     22 C           3.2302   32.9294    5.8455 C.3     1  UNL1        0.1469
     23 O           4.4870   33.2572    5.1511 O.3     1  UNL1       -0.3304
     24 C           4.3845   33.2669    3.6952 C.3     1  UNL1        0.2377
     25 C           2.9277   32.9485    3.5260 C.3     1  UNL1        0.0931
     26 C           2.4278   31.6343    4.0885 C.3     1  UNL1        0.1446
     27 O           1.0413   31.8086    4.1315 O.3     1  UNL1       -0.3817
     28 C           2.8111   31.5002    5.5015 C.3     1  UNL1        0.1644
     29 O           1.6272   31.0527    6.1945 O.3     1  UNL1       -0.3795
     30 H           0.6683   31.2788    4.8595 H       1  UNL1        0.2104
     31 H           1.7769   30.1447    6.4975 H       1  UNL1        0.2105
     32 O           8.2412   37.8824   -2.5053 O.3     1  UNL1       -0.3330
     33 C           7.4090   38.8641   -1.8102 C.3     1  UNL1        0.1178
     34 C           8.1042   40.1511   -1.3322 C.3     1  UNL1        0.0296
     35 C           8.8593   40.8240   -2.4944 C.3     1  UNL1        0.0025
     36 C           7.9988   40.9808   -3.7914 C.3     1  UNL1        0.0002
     37 C           8.2577   42.4201   -4.2886 C.3     1  UNL1        0.0000
     38 C           8.3164   39.9248   -4.9149 C.3     1  UNL1        0.0022
     39 C           9.7703   39.8287   -5.4272 C.3     1  UNL1        0.0002
     40 C           9.8347   38.8642   -6.6263 C.3     1  UNL1        0.0026
     41 C           9.1032   39.4423   -7.8652 C.3     1  UNL1        0.0261
     42 C          10.1350   40.3306   -8.6189 C.3     1  UNL1        0.0026
     43 C           8.5664   38.3747   -8.8898 C.3     1  UNL1        0.0243
     44 C           7.4892   39.1654   -9.6499 C.3     1  UNL1        0.0066
     45 C           6.8072   40.0375   -8.6077 C.3     1  UNL1        0.0272
     46 C           7.8219   40.2614   -7.4625 C.3     1  UNL1        0.0884
     47 O           8.0772   41.6657   -7.4353 O.3     1  UNL1       -0.3867
     48 C           7.2668   39.8227   -6.0748 C.3     1  UNL1        0.0247
     49 C           5.8287   40.3131   -5.7852 C.3     1  UNL1        0.0023
     50 C           5.5606   41.0829   -4.5118 C.3     1  UNL1        0.0002
     51 C           6.5160   40.7617   -3.3782 C.3     1  UNL1        0.0024
     52 C           6.2846   39.3238   -2.7842 C.3     1  UNL1        0.0296
     53 H           8.8178   41.8378   -6.8329 H       1  UNL1        0.2102
     54 C           8.0493   37.0445   -8.3891 C.2     1  UNL1        0.0053
     55 C           6.8604   36.7172   -7.8845 C.2     1  UNL1        0.0769
     56 C           6.8187   35.2467   -7.6854 C.2     1  UNL1        0.3412
     57 O           5.9135   34.6410   -7.2876 O.2     1  UNL1       -0.2449
     58 O           8.0458   34.7546   -8.0851 O.3     1  UNL1       -0.4408
     59 C           8.8569   35.8102   -8.5881 C.3     1  UNL1        0.2314
@<TRIPOS>BOND
     1    21    22    1
     2    22    23    1
     3    22    28    1
     4    23    24    1
     5    24    25    1
     6    24    20    1
     7    20    11    1
     8    11    12    1
     9    11    17    1
    10    12    13    1
    11    12    14    1
    12    13    19    1
    13    14    15    1
    14    15    10    1
    15    15    16    1
    16    10     1    1
    17     1     2    1
    18     1     7    1
    19     2     3    1
    20     2     4    1
    21     3     9    1
    22     4     5    1
    23     5    32    1
    24     5     6    1
    25    33    34    1
    26    33    52    1
    27    33    32    1
    28    34    35    1
    29    35    36    1
    30    36    37    1
    31    36    38    1
    32    36    51    1
    33    38    39    1
    34    38    48    1
    35    39    40    1
    36    40    41    1
    37    41    42    1
    38    41    43    1
    39    41    46    1
    40    43    54    1
    41    43    44    1
    42    54    55    2
    43    54    59    1
    44    55    56    1
    45    56    57    2
    46    56    58    1
    47    58    59    1
    48    44    45    1
    49    45    46    1
    50    46    47    1
    51    46    48    1
    52    47    53    1
    53    48    49    1
    54    49    50    1
    55    50    51    1
    56    51    52    1
    57     6     7    1
    58     7     8    1
    59    16    17    1
    60    17    18    1
    61    25    26    1
    62    26    27    1
    63    26    28    1
    64    27    30    1
    65    28    29    1
    66    29    31    1
#	Name:			CHEMBL25719
#	Creating user name:	trannguyen
#	Creation time:		Tue Feb  8 18:26:14 2022


#	Modifying user name:	trannguyen
#	Modification time:	Tue Feb  8 18:26:14 2022

@<TRIPOS>MOLECULE
CHEMBL25719
 12 11 0 0 0
SMALL
GASTEIGER

@<TRIPOS>ATOM
      1 C           1.2507   30.5647    8.2713 C.3     1  UNL1        0.0264
      2 C           1.9630   29.8257    9.3947 C.2     1  UNL1       -0.0454
      3 C           3.3866   30.2492    9.6404 C.3     1  UNL1        0.0261
      4 C           1.3160   28.8698   10.0914 C.2     1  UNL1       -0.0031
      5 C           1.8367   28.0138   11.1999 C.3     1  UNL1        0.1627
      6 O           2.1768   26.7456   10.6608 O.3     1  UNL1       -0.3772
      7 H           1.4111   26.4513   10.1386 H       1  UNL1        0.2109
      8 C           2.0828   31.6676    7.5995 C.3     1  UNL1        0.0297
      9 C           3.0368   31.1098    3.8361 C.3     1  UNL1        0.0260
     10 C           2.3438   31.6594    5.0556 C.2     1  UNL1       -0.0478
     11 C           1.2627   32.6621    4.7549 C.3     1  UNL1        0.0260
     12 C           2.6802   31.2361    6.2890 C.2     1  UNL1       -0.0342
@<TRIPOS>BOND
     1     9    10    1
     2    10    11    1
     3    10    12    2
     4    12     8    1
     5     8     1    1
     6     1     2    1
     7     2     3    1
     8     2     4    2
     9     4     5    1
    10     5     6    1
    11     6     7    1
#	Name:			CHEMBL258583
#	Creating user name:	trannguyen
#	Creation time:		Tue Feb  8 18:26:14 2022


#	Modifying user name:	trannguyen
#	Modification time:	Tue Feb  8 18:26:14 2022

@<TRIPOS>MOLECULE
CHEMBL258583
 41 41 0 0 0
SMALL
GASTEIGER

@<TRIPOS>ATOM
      1 C           5.1670   33.3312    5.2339 C.2     2  VAL2        0.2406
      2 O           4.5104   34.2941    4.8470 O.2     2  VAL2       -0.2733
      3 N           4.5646   32.1222    5.4962 N.am    3  ALA3       -0.2970
      4 H           5.1607   31.3373    5.7036 H       3  ALA3        0.1499
      5 CA          3.1785   31.8741    5.1545 C.3     3  ALA3        0.1486
      6 CB          3.0414   30.9323    3.9680 C.3     3  ALA3        0.0312
      7 C           2.4049   31.3683    6.3818 C.2     3  ALA3        0.2407
      8 O           1.2036   31.1241    6.3332 O.2     3  ALA3       -0.2733
      9 N           3.0846   31.3643    7.5947 N.am    4  GLU4       -0.2954
     10 H           4.0903   31.2733    7.5170 H       4  GLU4        0.1499
     11 CA          2.4131   30.8803    8.8179 C.3     4  GLU4        0.1718
     12 C           1.7251   32.0062    9.6300 C.2     4  GLU4        0.3318
     13 O           2.2293   32.5246   10.6184 O.2     4  GLU4       -0.2485
     14 OXT         0.5579   32.4587    9.1209 O.3     4  GLU4       -0.4791
     15 HXT         0.2293   31.8799    8.4086 H       4  GLU4        0.2951
     16 CB          3.3905   30.1953    9.8063 C.3     4  GLU4        0.0427
     17 CG          3.3624   28.6689    9.8262 C.3     4  GLU4        0.1116
     18 CD          2.3813   28.1553   10.8566 C.2     4  GLU4        0.3139
     19 OE1         1.7580   28.7953   11.6573 O.2     4  GLU4       -0.2503
     20 OE2         2.2037   26.8218   10.7559 O.3     4  GLU4       -0.4802
     21 HE2         1.5094   26.6553   11.4331 H       4  GLU4        0.2951
     22 CA          6.6694   33.4277    5.6299 C.3     2  VAL2        0.1485
     23 N           6.8644   33.6648    7.0822 N.am    2  VAL2       -0.2973
     24 C           6.5520   32.7579    8.0830 C.2     1  UNK1        0.2371
     25 O           6.0375   31.6709    7.8398 O.2     1  UNK1       -0.2737
     26 H           7.5385   34.3822    7.3192 H       2  VAL2        0.1499
     27 C           6.6570   33.3584    9.5150 C.3     1  UNK1        0.1327
     28 N           5.3290   33.2622   10.1675 N.3     1  UNK1       -0.3148
     29 H           4.6207   33.7787    9.6564 H       1  UNK1        0.1192
     30 H           5.3642   33.6522   11.1088 H       1  UNK1        0.1192
     31 C           7.7166   32.6384   10.3593 C.3     1  UNK1        0.0512
     32 C           8.9635   32.3027    9.5736 C.ar    1  UNK1       -0.0202
     33 C           9.1952   30.9938    9.1238 C.ar    1  UNK1       -0.0019
     34 C          10.3827   30.6769    8.4624 C.ar    1  UNK1        0.0293
     35 C          11.3176   31.6747    8.2151 C.ar    1  UNK1        0.1401
     36 F          12.4555   31.3686    7.5786 F       1  UNK1       -0.2042
     37 C          11.0866   32.9848    8.6149 C.ar    1  UNK1        0.0293
     38 C           9.9148   33.2983    9.3045 C.ar    1  UNK1       -0.0019
     39 CG1         9.0431   32.5640    5.3665 C.3     2  VAL2        0.0022
     40 CB          7.5699   32.3265    5.0081 C.3     2  VAL2        0.0269
     41 CG2         7.4809   32.2814    3.4718 C.3     2  VAL2        0.0022
@<TRIPOS>BOND
     1    39    40    1
     2    40    41    1
     3    22    23    1
     4    22     1    1
     5    22    40    1
     6    23    24   am
     7    23    26    1
     8    24    25    2
     9    24    27    1
    10    27    28    1
    11    27    31    1
    12    28    29    1
    13    28    30    1
    14    31    32    1
    15    32    33   ar
    16    32    38   ar
    17    33    34   ar
    18    34    35   ar
    19    35    36    1
    20    35    37   ar
    21    37    38   ar
    22     1     2    2
    23     1     3   am
    24     3     5    1
    25     3     4    1
    26     5     6    1
    27     5     7    1
    28     7     8    2
    29     7     9   am
    30     9    11    1
    31     9    10    1
    32    11    16    1
    33    11    12    1
    34    16    17    1
    35    17    18    1
    36    18    19    2
    37    18    20    1
    38    20    21    1
    39    12    13    2
    40    12    14    1
    41    14    15    1
#	Name:			CHEMBL258999
#	Creating user name:	trannguyen
#	Creation time:		Tue Feb  8 18:26:14 2022


#	Modifying user name:	trannguyen
#	Modification time:	Tue Feb  8 18:26:14 2022

@<TRIPOS>MOLECULE
CHEMBL258999
 46 47 0 0 0
SMALL
GASTEIGER

@<TRIPOS>ATOM
      1 N           6.3931   32.1803    2.8540 N.am    4  THR4       -0.2951
      2 C           5.2810   32.6219    3.5273 C.2     3  PRO3        0.2409
      3 O           4.8443   33.7663    3.3675 O.2     3  PRO3       -0.2733
      4 H           6.5414   31.1758    2.8076 H       4  THR4        0.1499
      5 CA          4.5570   31.6421    4.4774 C.3     3  PRO3        0.1518
      6 CB          3.4124   31.0109    3.6626 C.3     3  PRO3        0.0310
      7 CG          2.2566   31.9501    3.9697 C.3     3  PRO3        0.0237
      8 CD          2.4377   32.2003    5.4560 C.3     3  PRO3        0.0939
      9 N           3.8798   32.1998    5.6575 N.am    3  PRO3       -0.2717
     10 C           4.5571   32.3606    6.8527 C.2     2  PHE2        0.2442
     11 O           5.7888   32.4572    6.8561 O.2     2  PHE2       -0.2731
     12 CA          3.7347   32.4283    8.1738 C.3     2  PHE2        0.1532
     13 N           3.1419   33.7920    8.3100 N.am    2  PHE2       -0.2969
     14 C           3.0784   34.4756    9.5083 C.2     1  GLY1        0.2387
     15 O           3.4821   33.9982   10.5696 O.2     1  GLY1       -0.2736
     16 H           2.8980   34.2952    7.4648 H       2  PHE2        0.1499
     17 CA          2.4339   35.8752    9.4050 C.3     1  GLY1        0.1515
     18 N           1.1083   35.9139   10.0474 N.3     1  GLY1       -0.3135
     19 H1          1.2243   35.6290   11.0231 H       1  GLY1        0.1193
     20 H2          0.5397   35.1648    9.6467 H       1  GLY1        0.1193
     21 CB          2.5752   31.4065    8.2139 C.3     2  PHE2        0.0553
     22 CG          2.4977   30.2982    9.2401 C.ar    2  PHE2       -0.0200
     23 CD1         1.2599   29.8053    9.6854 C.ar    2  PHE2       -0.0042
     24 CE1         1.1957   28.6694   10.5023 C.ar    2  PHE2       -0.0003
     25 CZ          2.3642   28.0206   10.8957 C.ar    2  PHE2       -0.0000
     26 CE2         3.5997   28.5185   10.4900 C.ar    2  PHE2       -0.0003
     27 CD2         3.6673   29.6503    9.6709 C.ar    2  PHE2       -0.0042
     28 CA          7.0563   33.0435    1.8566 C.3     4  THR4        0.1757
     29 CG2         8.0416   35.0944    3.0412 C.3     4  THR4        0.0340
     30 CB          8.3405   33.7271    2.4098 C.3     4  THR4        0.1373
     31 OG1         8.9352   32.8868    3.4151 O.3     4  THR4       -0.3823
     32 HG1         9.2275   33.4410    4.1601 H       4  THR4        0.2104
     33 C           7.4155   32.1476    0.6616 C.2     4  THR4        0.2432
     34 O           7.5888   30.9320    0.8024 O.2     4  THR4       -0.2732
     35 N           7.4653   32.6505   -0.6017 N.am    5  GLY5       -0.2952
     36 H           7.5598   31.9286   -1.3127 H       5  GLY5        0.1499
     37 CA          7.2303   33.9993   -1.0897 C.3     5  GLY5        0.1757
     38 C           7.8684   34.1298   -2.4663 C.2     5  GLY5        0.2429
     39 O           8.6128   35.0692   -2.7615 O.2     5  GLY5       -0.2732
     40 N           7.5247   33.1532   -3.3728 N.am    6  GLY6       -0.2936
     41 H           7.1521   32.2769   -3.0168 H       6  GLY6        0.1500
     42 CA          8.1889   33.1080   -4.6970 C.3     6  GLY6        0.2004
     43 C           7.2577   33.6467   -5.7673 C.2     6  GLY6        0.3341
     44 O           7.3537   34.8112   -6.1832 O.2     6  GLY6       -0.2484
     45 OXT         6.3586   32.7925   -6.2706 O.3     6  GLY6       -0.4790
     46 HXT         6.4137   31.9548   -5.7867 H       6  GLY6        0.2951
@<TRIPOS>BOND
     1    29    30    1
     2    30    31    1
     3    31    32    1
     4    28     1    1
     5    28    33    1
     6    28    30    1
     7     1     2   am
     8     1     4    1
     9     2     3    2
    10     5     6    1
    11     5     9    1
    12     5     2    1
    13     6     7    1
    14     7     8    1
    15     8     9    1
    16     9    10   am
    17    10    11    2
    18    12    21    1
    19    12    13    1
    20    12    10    1
    21    21    22    1
    22    22    23   ar
    23    22    27   ar
    24    23    24   ar
    25    24    25   ar
    26    25    26   ar
    27    26    27   ar
    28    13    14   am
    29    13    16    1
    30    14    15    2
    31    14    17    1
    32    17    18    1
    33    18    19    1
    34    18    20    1
    35    33    34    2
    36    33    35   am
    37    35    37    1
    38    35    36    1
    39    37    38    1
    40    38    39    2
    41    38    40   am
    42    40    42    1
    43    40    41    1
    44    42    43    1
    45    43    44    2
    46    43    45    1
    47    45    46    1
#	Name:			CHEMBL259240
#	Creating user name:	trannguyen
#	Creation time:		Tue Feb  8 18:26:14 2022


#	Modifying user name:	trannguyen
#	Modification time:	Tue Feb  8 18:26:14 2022

@<TRIPOS>MOLECULE
CHEMBL259240
 37 36 0 0 0
SMALL
GASTEIGER

@<TRIPOS>ATOM
      1 CA          2.9292   32.3790    5.8888 C.3     3  VAL3        0.1485
      2 C           5.3258   32.6124    5.2286 C.2     2  ALA2        0.2406
      3 O           5.3047   33.8373    5.3345 O.2     2  ALA2       -0.2733
      4 N           4.2122   31.8242    5.4464 N.am    3  VAL3       -0.2970
      5 H           4.3339   30.8153    5.4458 H       3  VAL3        0.1499
      6 CA          6.5566   31.8515    4.6865 C.3     2  ALA2        0.1486
      7 CB          7.6244   31.7250    5.7681 C.3     2  ALA2        0.0312
      8 C           7.3191   31.9940    2.3083 C.2     1  ILE1        0.2368
      9 O           7.0294   30.8174    2.1026 O.2     1  ILE1       -0.2737
     10 N           7.1258   32.5785    3.5491 N.am    2  ALA2       -0.2973
     11 H           7.2315   33.5818    3.6426 H       2  ALA2        0.1499
     12 CA          7.9120   32.9808    1.2417 C.3     1  ILE1        0.1282
     13 N           8.9338   33.8120    1.9253 N.3     1  ILE1       -0.3150
     14 H1          8.6848   33.9626    2.9009 H       1  ILE1        0.1192
     15 H2          8.9843   34.7295    1.4857 H       1  ILE1        0.1192
     16 CB          8.5261   32.2833   -0.0173 C.3     1  ILE1        0.0231
     17 CG2         7.4837   32.1391   -1.1411 C.3     1  ILE1        0.0019
     18 CD1         9.4611   34.0860   -1.6383 C.3     1  ILE1        0.0001
     19 CG1         9.7718   33.0369   -0.5680 C.3     1  ILE1        0.0018
     20 C           2.3714   31.4679    7.0176 C.2     3  VAL3        0.2407
     21 O           1.2954   30.8758    6.9108 O.2     3  VAL3       -0.2733
     22 N           3.1903   31.1971    8.0987 N.am    4  GLU4       -0.2954
     23 H           4.1708   31.4650    8.0458 H       4  GLU4        0.1499
     24 CA          2.8118   30.2225    9.1463 C.3     4  GLU4        0.1718
     25 C           1.7945   30.8766   10.0987 C.2     4  GLU4        0.3318
     26 O           2.0757   31.7076   10.9596 O.2     4  GLU4       -0.2485
     27 OXT         0.5437   30.3823    9.9665 O.3     4  GLU4       -0.4791
     28 HXT         0.5418   29.6994    9.2653 H       4  GLU4        0.2951
     29 CB          4.0122   29.6765    9.9356 C.3     4  GLU4        0.0427
     30 CG          4.0269   28.1656   10.1695 C.3     4  GLU4        0.1116
     31 CD          2.7882   27.6380   10.8087 C.2     4  GLU4        0.3139
     32 OE1         2.3595   28.0357   11.9072 O.2     4  GLU4       -0.2503
     33 OE2         2.2362   26.6030   10.1699 O.3     4  GLU4       -0.4802
     34 HE2         2.7752   26.2374    9.4181 H       4  GLU4        0.2951
     35 CB          1.9768   32.6653    4.7060 C.3     3  VAL3        0.0269
     36 CG1         1.9874   34.1536    4.3401 C.3     3  VAL3        0.0022
     37 CG2         2.2588   31.8502    3.4446 C.3     3  VAL3        0.0022
@<TRIPOS>BOND
     1    18    19    1
     2    16    17    1
     3    16    19    1
     4    12    13    1
     5    12     8    1
     6    12    16    1
     7    13    14    1
     8    13    15    1
     9     8     9    2
    10     8    10   am
    11    10     6    1
    12    10    11    1
    13     6     7    1
    14     6     2    1
    15     2     3    2
    16     2     4   am
    17     4     5    1
    18     1    20    1
    19     1    35    1
    20     1     4    1
    21    20    21    2
    22    20    22   am
    23    22    24    1
    24    22    23    1
    25    24    29    1
    26    24    25    1
    27    29    30    1
    28    30    31    1
    29    31    32    2
    30    31    33    1
    31    33    34    1
    32    25    26    2
    33    25    27    1
    34    27    28    1
    35    35    36    1
    36    35    37    1
#	Name:			CHEMBL25
#	Creating user name:	trannguyen
#	Creation time:		Tue Feb  8 18:26:14 2022


#	Modifying user name:	trannguyen
#	Modification time:	Tue Feb  8 18:26:14 2022

@<TRIPOS>MOLECULE
CHEMBL25
 14 14 0 0 0
SMALL
GASTEIGER

@<TRIPOS>ATOM
      1 C           2.5118   30.0759   10.1550 C.ar    1  UNL1        0.1546
      2 C           2.0762   31.2284    9.4848 C.ar    1  UNL1        0.0378
      3 C           0.7880   31.3021    8.9633 C.ar    1  UNL1        0.0031
      4 C          -0.0920   30.2417    9.1390 C.ar    1  UNL1        0.0004
      5 C           0.3169   29.1069    9.8450 C.ar    1  UNL1        0.0095
      6 C           1.6218   29.0086   10.3619 C.ar    1  UNL1        0.1100
      7 C           1.9286   27.7795   11.1378 C.2     1  UNL1        0.3410
      8 O           1.8348   27.6779   12.3528 O.2     1  UNL1       -0.2450
      9 O           2.2475   26.7235   10.3799 O.3     1  UNL1       -0.4770
     10 H           2.3629   26.0030   11.0355 H       1  UNL1        0.2954
     11 O           3.8040   30.0322   10.7253 O.3     1  UNL1       -0.4239
     12 C           5.9245   30.4133    9.7445 C.3     1  UNL1        0.1216
     13 C           4.8618   29.4103   10.0602 C.2     1  UNL1        0.3220
     14 O           4.9643   28.2231    9.7778 O.2     1  UNL1       -0.2497
@<TRIPOS>BOND
     1    12    13    1
     2    13    14    2
     3    13    11    1
     4    11     1    1
     5     1     2   ar
     6     1     6   ar
     7     2     3   ar
     8     3     4   ar
     9     4     5   ar
    10     5     6   ar
    11     6     7    1
    12     7     8    2
    13     7     9    1
    14     9    10    1
#	Name:			CHEMBL260510
#	Creating user name:	trannguyen
#	Creation time:		Tue Feb  8 18:26:14 2022


#	Modifying user name:	trannguyen
#	Modification time:	Tue Feb  8 18:26:14 2022

@<TRIPOS>MOLECULE
CHEMBL260510
 63 63 0 0 0
SMALL
GASTEIGER

@<TRIPOS>ATOM
      1 C           7.3901   34.3342    3.8560 C.2     4  PRO4        0.2409
      2 O           6.7240   35.3590    3.9733 O.2     4  PRO4       -0.2733
      3 N           8.7229   34.3278    3.4712 N.am    5  GLY5       -0.2953
      4 H           8.9655   33.4967    2.9434 H       5  GLY5        0.1499
      5 C           6.9926   33.3390    6.8386 C.2     3  VAL3        0.2438
      6 O           8.0659   33.9385    6.7136 O.2     3  VAL3       -0.2731
      7 N           6.2223   33.0593    5.7244 N.am    4  PRO4       -0.2717
      8 CD          4.9038   32.4334    5.6502 C.3     4  PRO4        0.0939
      9 CG          4.9310   31.6170    4.3646 C.3     4  PRO4        0.0237
     10 CB          5.8350   32.4309    3.4552 C.3     4  PRO4        0.0310
     11 CA          6.8966   32.9966    4.4147 C.3     4  PRO4        0.1518
     12 CA          6.5151   32.8803    8.2498 C.3     3  VAL3        0.1487
     13 C           4.5760   33.9466    9.4870 C.2     2  ALA2        0.2406
     14 O           5.3374   34.4377   10.3324 O.2     2  ALA2       -0.2733
     15 N           5.0598   33.1561    8.4445 N.am    3  VAL3       -0.2970
     16 H           4.4448   32.9113    7.6787 H       3  VAL3        0.1499
     17 CA          3.0554   34.3136    9.5295 C.3     2  ALA2        0.1486
     18 CB          2.6036   35.5572   10.2932 C.3     2  ALA2        0.0312
     19 C           1.9136   32.1401    9.0616 C.2     1  ILE1        0.2368
     20 O           2.1261   32.2382    7.8463 O.2     1  ILE1       -0.2737
     21 N           2.2845   33.1331    9.9477 N.am    2  ALA2       -0.2973
     22 H           2.2484   32.9084   10.9357 H       2  ALA2        0.1499
     23 CA          1.1082   30.9681    9.6925 C.3     1  ILE1        0.1282
     24 N           0.2768   30.3510    8.6327 N.3     1  ILE1       -0.3150
     25 H1         -0.3683   31.0337    8.2431 H       1  ILE1        0.1192
     26 H2          0.8930   30.0921    7.8578 H       1  ILE1        0.1192
     27 CB          1.9948   29.8927   10.3920 C.3     1  ILE1        0.0231
     28 CG2         1.3037   28.5268   10.5124 C.3     1  ILE1        0.0019
     29 CD1         4.1831   28.5532   10.0693 C.3     1  ILE1        0.0001
     30 CG1         3.3595   29.7736    9.6728 C.3     1  ILE1        0.0018
     31 CB          6.8908   31.4108    8.5674 C.3     3  VAL3        0.0269
     32 CG1         8.2317   31.0520    7.9138 C.3     3  VAL3        0.0022
     33 CG2         6.9488   31.0643   10.0584 C.3     3  VAL3        0.0022
     34 CA          9.3668   35.5688    3.1177 C.3     5  GLY5        0.1757
     35 C           9.7994   35.5409    1.6459 C.2     5  GLY5        0.2428
     36 O          10.9723   35.4581    1.2887 O.2     5  GLY5       -0.2732
     37 N           8.7742   35.6502    0.7291 N.am    6  GLU6       -0.2969
     38 H           7.8180   35.6098    1.0578 H       6  GLU6        0.1499
     39 CA          9.0391   35.6209   -0.7161 C.3     6  GLU6        0.1491
     40 C           8.1848   36.6751   -1.4870 C.2     6  GLU6        0.2406
     41 O           7.1761   37.1867   -0.9998 O.2     6  GLU6       -0.2733
     42 N           8.5878   36.9862   -2.7676 N.am    7  VAL7       -0.2970
     43 H           9.3121   36.4220   -3.1972 H       7  VAL7        0.1499
     44 CA          7.8380   37.9414   -3.5886 C.3     7  VAL7        0.1485
     45 C           7.3764   37.2882   -4.9196 C.2     7  VAL7        0.2407
     46 O           6.3477   37.5998   -5.5158 O.2     7  VAL7       -0.2733
     47 N           8.0547   36.1430   -5.2841 N.am    8  ALA8       -0.2954
     48 H           8.7826   35.8013   -4.6686 H       8  ALA8        0.1499
     49 CA          7.7533   35.3252   -6.4749 C.3     8  ALA8        0.1713
     50 CB          9.0153   34.5547   -6.9026 C.3     8  ALA8        0.0333
     51 C           6.6238   34.2833   -6.2675 C.2     8  ALA8        0.3318
     52 O           5.5136   34.4032   -6.7103 O.2     8  ALA8       -0.2485
     53 OXT         6.9467   33.2349   -5.4807 O.3     8  ALA8       -0.4791
     54 HXT         7.7549   33.4477   -4.9956 H       8  ALA8        0.2951
     55 CB          8.6544   39.2454   -3.8510 C.3     7  VAL7        0.0269
     56 CG1         7.7974   40.3236   -4.5312 C.3     7  VAL7        0.0022
     57 CG2         9.2142   39.8578   -2.5534 C.3     7  VAL7        0.0022
     58 CB          8.7458   34.2302   -1.3138 C.3     6  GLU6        0.0406
     59 CG          7.5540   33.5223   -0.6763 C.3     6  GLU6        0.1116
     60 CD          8.0141   32.3569    0.1711 C.2     6  GLU6        0.3139
     61 OE1         8.7555   32.4290    1.1288 O.2     6  GLU6       -0.2503
     62 OE2         7.5003   31.1788   -0.2375 O.3     6  GLU6       -0.4802
     63 HE2         7.8578   30.5164    0.3904 H       6  GLU6        0.2951
@<TRIPOS>BOND
     1    29    30    1
     2    27    28    1
     3    27    30    1
     4    23    24    1
     5    23    19    1
     6    23    27    1
     7    24    25    1
     8    24    26    1
     9    19    20    2
    10    19    21   am
    11    21    17    1
    12    21    22    1
    13    17    18    1
    14    17    13    1
    15    13    14    2
    16    13    15   am
    17    15    16    1
    18    12     5    1
    19    12    31    1
    20    12    15    1
    21     5     6    2
    22     5     7   am
    23     7     8    1
    24     7    11    1
    25     8     9    1
    26     9    10    1
    27    10    11    1
    28    11     1    1
    29     1     2    2
    30     1     3   am
    31     3    34    1
    32     3     4    1
    33    34    35    1
    34    35    36    2
    35    35    37   am
    36    37    39    1
    37    37    38    1
    38    39    58    1
    39    39    40    1
    40    58    59    1
    41    59    60    1
    42    60    61    2
    43    60    62    1
    44    62    63    1
    45    40    41    2
    46    40    42   am
    47    42    43    1
    48    44    45    1
    49    44    55    1
    50    44    42    1
    51    45    46    2
    52    45    47   am
    53    47    49    1
    54    47    48    1
    55    49    50    1
    56    49    51    1
    57    51    52    2
    58    51    53    1
    59    53    54    1
    60    55    56    1
    61    55    57    1
    62    31    32    1
    63    31    33    1
#	Name:			CHEMBL261334
#	Creating user name:	trannguyen
#	Creation time:		Tue Feb  8 18:26:14 2022


#	Modifying user name:	trannguyen
#	Modification time:	Tue Feb  8 18:26:14 2022

@<TRIPOS>MOLECULE
CHEMBL261334
 43 43 0 0 0
SMALL
GASTEIGER

@<TRIPOS>ATOM
      1 C           7.6084   31.9659    7.8117 C.2     3  PRO3        0.2409
      2 O           7.5059   30.8296    8.2719 O.2     3  PRO3       -0.2733
      3 N           7.0016   33.0648    8.4067 N.am    4  THR4       -0.2951
      4 H           7.0018   33.9595    7.9352 H       4  THR4        0.1499
      5 C           6.7416   32.1669    4.6540 C.2     2  LEU2        0.2438
      6 O           6.8602   30.9382    4.6987 O.2     2  LEU2       -0.2731
      7 N           7.5371   32.9200    5.4886 N.am    3  PRO3       -0.2717
      8 CD          7.7849   34.3463    5.4778 C.3     3  PRO3        0.0939
      9 CG          9.2759   34.4086    5.7625 C.3     3  PRO3        0.0237
     10 CB          9.5208   33.2623    6.7498 C.3     3  PRO3        0.0310
     11 CA          8.3873   32.2599    6.4960 C.3     3  PRO3        0.1518
     12 CA          5.8257   32.8797    3.6063 C.3     2  LEU2        0.1488
     13 N           6.3882   32.5251    2.2848 N.am    2  LEU2       -0.2972
     14 C           7.1729   33.3599    1.5220 C.2     1  GLY1        0.2387
     15 O           7.4560   34.5127    1.8354 O.2     1  GLY1       -0.2736
     16 H           6.2802   31.5634    1.9878 H       2  LEU2        0.1499
     17 CA          7.6781   32.7084    0.2247 C.3     1  GLY1        0.1515
     18 N           7.6081   31.2425    0.3160 N.3     1  GLY1       -0.3135
     19 H1          6.6543   31.0011    0.6014 H       1  GLY1        0.1193
     20 H2          8.1644   30.9563    1.1254 H       1  GLY1        0.1193
     21 CB          4.3324   32.4537    3.6635 C.3     2  LEU2        0.0290
     22 CD1         2.4831   33.9160    4.7189 C.3     2  LEU2        0.0001
     23 CG          3.4912   32.7921    4.9163 C.3     2  LEU2        0.0021
     24 CD2         2.7865   31.5633    5.4822 C.3     2  LEU2        0.0001
     25 CA          6.1300   32.9174    9.5846 C.3     4  THR4        0.1757
     26 C           4.6773   33.3666    9.2247 C.2     4  THR4        0.2432
     27 O           4.3933   34.5213    8.9207 O.2     4  THR4       -0.2732
     28 N           3.7092   32.3851    9.3271 N.am    5  GLY5       -0.2952
     29 H           3.9441   31.5495    9.8510 H       5  GLY5        0.1499
     30 CA          2.3143   32.6242    9.0826 C.3     5  GLY5        0.1757
     31 C           1.6129   31.2738    9.1585 C.2     5  GLY5        0.2429
     32 O           0.5567   31.0506    8.6035 O.2     5  GLY5       -0.2732
     33 N           2.2137   30.3234    9.9589 N.am    6  GLY6       -0.2936
     34 H           3.1694   30.4825   10.2422 H       6  GLY6        0.1500
     35 CA          1.7457   28.9353   10.0094 C.3     6  GLY6        0.2004
     36 C           2.3209   27.9707   11.0637 C.2     6  GLY6        0.3341
     37 O           1.8958   27.9335   12.1920 O.2     6  GLY6       -0.2484
     38 OXT         3.3057   27.1389   10.6606 O.3     6  GLY6       -0.4790
     39 HXT         3.7832   27.4895    9.8914 H       6  GLY6        0.2951
     40 CB          6.6647   33.6520   10.8471 C.3     4  THR4        0.1373
     41 CG2         7.9683   33.1109   11.4018 C.3     4  THR4        0.0340
     42 OG1         6.8368   35.0604   10.5876 O.3     4  THR4       -0.3823
     43 HG1         7.1317   35.4798   11.4176 H       4  THR4        0.2104
@<TRIPOS>BOND
     1    22    23    1
     2    23    24    1
     3    23    21    1
     4    12    13    1
     5    12     5    1
     6    12    21    1
     7    13    14   am
     8    13    16    1
     9    14    15    2
    10    14    17    1
    11    17    18    1
    12    18    19    1
    13    18    20    1
    14     5     6    2
    15     5     7   am
    16     7     8    1
    17     7    11    1
    18     8     9    1
    19     9    10    1
    20    10    11    1
    21    11     1    1
    22     1     2    2
    23     1     3   am
    24     3     4    1
    25    25    26    1
    26    25    40    1
    27    25     3    1
    28    26    27    2
    29    26    28   am
    30    28    30    1
    31    28    29    1
    32    30    31    1
    33    31    32    2
    34    31    33   am
    35    33    35    1
    36    33    34    1
    37    35    36    1
    38    36    37    2
    39    36    38    1
    40    38    39    1
    41    40    41    1
    42    40    42    1
    43    42    43    1
#	Name:			CHEMBL261621
#	Creating user name:	trannguyen
#	Creation time:		Tue Feb  8 18:26:14 2022


#	Modifying user name:	trannguyen
#	Modification time:	Tue Feb  8 18:26:14 2022

@<TRIPOS>MOLECULE
CHEMBL261621
 48 49 0 0 0
SMALL
GASTEIGER

@<TRIPOS>ATOM
      1 C           2.1170   31.9529    6.7352 C.2     3  PRO3        0.2409
      2 O           1.1980   31.1590    6.5190 O.2     3  PRO3       -0.2733
      3 N           2.5948   32.1994    8.0113 N.am    4  GLU4       -0.2970
      4 H           3.3537   32.8563    8.1042 H       4  GLU4        0.1499
      5 C           5.4107   32.6288    6.1690 C.2     2  PHE2        0.2442
      6 O           5.1745   33.4047    7.0985 O.2     2  PHE2       -0.2731
      7 N           4.3477   32.0757    5.4397 N.am    3  PRO3       -0.2717
      8 CD          4.4848   31.1813    4.3111 C.3     3  PRO3        0.0939
      9 CG          3.1008   31.0241    3.7027 C.3     3  PRO3        0.0237
     10 CB          2.2946   32.2062    4.2275 C.3     3  PRO3        0.0310
     11 CA          2.9526   32.5700    5.5722 C.3     3  PRO3        0.1518
     12 CA          6.8977   32.3717    5.6739 C.3     2  PHE2        0.1532
     13 C           8.5261   33.8977    4.4681 C.2     1  GLY1        0.2387
     14 O           9.1064   32.9926    3.8603 O.2     1  GLY1       -0.2736
     15 N           7.4798   33.6938    5.3453 N.am    2  PHE2       -0.2969
     16 H           7.1732   34.4871    5.8956 H       2  PHE2        0.1499
     17 N           8.3022   35.9340    3.0757 N.3     1  GLY1       -0.3135
     18 CA          8.9465   35.3526    4.2628 C.3     1  GLY1        0.1515
     19 H1          8.7082   36.8535    2.9012 H       1  GLY1        0.1193
     20 H2          7.3150   36.0812    3.2545 H       1  GLY1        0.1193
     21 CB          7.7523   31.4898    6.6399 C.3     2  PHE2        0.0553
     22 CG          7.6447   31.7359    8.1557 C.ar    2  PHE2       -0.0200
     23 CD1         6.8585   30.8790    8.9515 C.ar    2  PHE2       -0.0042
     24 CE1         6.6794   31.1114   10.3268 C.ar    2  PHE2       -0.0003
     25 CZ          7.2818   32.2046   10.9409 C.ar    2  PHE2       -0.0000
     26 CE2         8.0657   33.0598   10.1799 C.ar    2  PHE2       -0.0003
     27 CD2         8.2363   32.8292    8.8082 C.ar    2  PHE2       -0.0042
     28 CA          1.9212   31.7133    9.2227 C.3     4  GLU4        0.1491
     29 C           1.6054   32.9389   10.1274 C.2     4  GLU4        0.2407
     30 O           2.4439   33.4095   10.8765 O.2     4  GLU4       -0.2733
     31 N           0.3068   33.3989   10.0766 N.am    5  GLY5       -0.2953
     32 H          -0.3259   32.9655    9.4222 H       5  GLY5        0.1499
     33 CA         -0.3061   34.5067   10.8099 C.3     5  GLY5        0.1757
     34 C          -0.1249   36.0011   10.5021 C.2     5  GLY5        0.2429
     35 O          -1.0974   36.7317   10.3156 O.2     5  GLY5       -0.2732
     36 N           1.1462   36.4930   10.5905 N.am    6  GLY6       -0.2936
     37 H           1.9049   35.8487   10.8189 H       6  GLY6        0.1500
     38 CA          1.4934   37.8885   10.3691 C.3     6  GLY6        0.2004
     39 C           1.6562   38.2833    8.8955 C.2     6  GLY6        0.3341
     40 O           2.7346   38.4244    8.3486 O.2     6  GLY6       -0.2484
     41 OXT         0.4793   38.4325    8.2327 O.3     6  GLY6       -0.4790
     42 HXT        -0.2617   38.1644    8.8147 H       6  GLY6        0.2951
     43 CB          2.7698   30.6481    9.9501 C.3     4  GLU4        0.0406
     44 CG          2.2613   29.2121    9.7299 C.3     4  GLU4        0.1116
     45 CD          1.5789   28.6482   10.9456 C.2     4  GLU4        0.3139
     46 OE1         2.1680   28.2029   11.9360 O.2     4  GLU4       -0.2503
     47 OE2         0.2306   28.7106   10.8696 O.3     4  GLU4       -0.4802
     48 HE2        -0.1123   29.1049   10.0478 H       4  GLU4        0.2951
@<TRIPOS>BOND
     1    17    18    1
     2    17    19    1
     3    17    20    1
     4    18    13    1
     5    13    14    2
     6    13    15   am
     7    15    12    1
     8    15    16    1
     9    12    21    1
    10    12     5    1
    11    21    22    1
    12    22    23   ar
    13    22    27   ar
    14    23    24   ar
    15    24    25   ar
    16    25    26   ar
    17    26    27   ar
    18     5     6    2
    19     5     7   am
    20     7     8    1
    21     7    11    1
    22     8     9    1
    23     9    10    1
    24    10    11    1
    25    11     1    1
    26     1     2    2
    27     1     3   am
    28     3    28    1
    29     3     4    1
    30    28    43    1
    31    28    29    1
    32    43    44    1
    33    44    45    1
    34    45    46    2
    35    45    47    1
    36    47    48    1
    37    29    30    2
    38    29    31   am
    39    31    33    1
    40    31    32    1
    41    33    34    1
    42    34    35    2
    43    34    36   am
    44    36    38    1
    45    36    37    1
    46    38    39    1
    47    39    40    2
    48    39    41    1
    49    41    42    1
#	Name:			CHEMBL261622
#	Creating user name:	trannguyen
#	Creation time:		Tue Feb  8 18:26:14 2022


#	Modifying user name:	trannguyen
#	Modification time:	Tue Feb  8 18:26:14 2022

@<TRIPOS>MOLECULE
CHEMBL261622
 47 48 0 0 0
SMALL
GASTEIGER

@<TRIPOS>ATOM
      1 C           6.6347   32.6781    6.7146 C.2     3  PRO3        0.2409
      2 O           7.0060   33.8464    6.7795 O.2     3  PRO3       -0.2733
      3 N           7.0051   31.7238    7.6362 N.am    4  ASP4       -0.2966
      4 H           6.7440   30.7549    7.4885 H       4  ASP4        0.1499
      5 C           3.6050   33.5252    5.7495 C.2     2  PHE2        0.2442
      6 O           2.8182   34.3245    5.2339 O.2     2  PHE2       -0.2731
      7 N           4.7874   33.1611    5.1296 N.am    3  PRO3       -0.2717
      8 CD          5.3310   33.7944    3.9375 C.3     3  PRO3        0.0939
      9 CG          6.0274   32.6392    3.2350 C.3     3  PRO3        0.0237
     10 CB          6.5037   31.7214    4.3669 C.3     3  PRO3        0.0310
     11 CA          5.7067   32.1394    5.6020 C.3     3  PRO3        0.1518
     12 CA          3.2882   32.8601    7.1260 C.3     2  PHE2        0.1532
     13 C           3.4703   34.3517    9.0965 C.2     1  GLY1        0.2387
     14 O           4.5968   33.9503    9.3840 O.2     1  GLY1       -0.2736
     15 N           2.7446   33.8682    8.0304 N.am    2  PHE2       -0.2969
     16 H           1.8193   34.2448    7.8469 H       2  PHE2        0.1499
     17 N           2.4290   36.5969    9.0270 N.3     1  GLY1       -0.3135
     18 CA          2.7871   35.4631    9.8940 C.3     1  GLY1        0.1515
     19 H1          1.7251   37.1504    9.5181 H       1  GLY1        0.1193
     20 H2          1.9499   36.2283    8.2028 H       1  GLY1        0.1193
     21 CB          2.3622   31.6296    7.0021 C.3     2  PHE2        0.0553
     22 CG          2.3059   30.7609    8.2495 C.ar    2  PHE2       -0.0200
     23 CD1         3.4622   30.5146    9.0029 C.ar    2  PHE2       -0.0042
     24 CE1         3.4097   29.7131   10.1481 C.ar    2  PHE2       -0.0003
     25 CZ          2.2025   29.1495   10.5562 C.ar    2  PHE2       -0.0000
     26 CE2         1.0465   29.3837    9.8176 C.ar    2  PHE2       -0.0003
     27 CD2         1.0973   30.1876    8.6759 C.ar    2  PHE2       -0.0042
     28 CA          7.9157   32.0220    8.7499 C.3     4  ASP4        0.1598
     29 C           9.2010   31.1864    8.5652 C.2     4  ASP4        0.2413
     30 O           9.2512   30.2319    7.7872 O.2     4  ASP4       -0.2733
     31 N          10.2441   31.4973    9.4082 N.am    5  GLY5       -0.2953
     32 H          10.1513   32.2260   10.1148 H       5  GLY5        0.1499
     33 CA         11.5497   30.8754    9.2597 C.3     5  GLY5        0.1757
     34 C          12.4623   31.6878    8.3381 C.2     5  GLY5        0.2429
     35 O          12.6361   32.8955    8.4858 O.2     5  GLY5       -0.2732
     36 N          13.1156   30.9507    7.3804 N.am    6  GLY6       -0.2936
     37 H          12.9293   29.9604    7.2660 H       6  GLY6        0.1500
     38 CA         14.0405   31.5562    6.4317 C.3     6  GLY6        0.2004
     39 C          13.5773   31.3969    4.9923 C.2     6  GLY6        0.3341
     40 O          13.3119   32.3022    4.2156 O.2     6  GLY6       -0.2484
     41 OXT        13.4849   30.1102    4.5837 O.3     6  GLY6       -0.4790
     42 HXT        13.1551   30.1914    3.6619 H       6  GLY6        0.2951
     43 CB          7.2199   31.6689   10.0618 C.3     4  ASP4        0.1382
     44 CG          7.4359   32.7331   11.0927 C.2     4  ASP4        0.3160
     45 OD1         8.5510   33.0569   11.5272 O.2     4  ASP4       -0.2502
     46 OD2         6.3102   33.2696   11.5881 O.3     4  ASP4       -0.4801
     47 HD2         5.4776   32.8897   11.2320 H       4  ASP4        0.2951
@<TRIPOS>BOND
     1    17    18    1
     2    17    19    1
     3    17    20    1
     4    18    13    1
     5    13    14    2
     6    13    15   am
     7    15    12    1
     8    15    16    1
     9    12    21    1
    10    12     5    1
    11    21    22    1
    12    22    23   ar
    13    22    27   ar
    14    23    24   ar
    15    24    25   ar
    16    25    26   ar
    17    26    27   ar
    18     5     6    2
    19     5     7   am
    20     7     8    1
    21     7    11    1
    22     8     9    1
    23     9    10    1
    24    10    11    1
    25    11     1    1
    26     1     2    2
    27     1     3   am
    28     3    28    1
    29     3     4    1
    30    28    43    1
    31    28    29    1
    32    43    44    1
    33    44    45    2
    34    44    46    1
    35    46    47    1
    36    29    30    2
    37    29    31   am
    38    31    33    1
    39    31    32    1
    40    33    34    1
    41    34    35    2
    42    34    36   am
    43    36    38    1
    44    36    37    1
    45    38    39    1
    46    39    40    2
    47    39    41    1
    48    41    42    1
#	Name:			CHEMBL261748
#	Creating user name:	trannguyen
#	Creation time:		Tue Feb  8 18:26:14 2022


#	Modifying user name:	trannguyen
#	Modification time:	Tue Feb  8 18:26:14 2022

@<TRIPOS>MOLECULE
CHEMBL261748
 37 36 0 0 0
SMALL
GASTEIGER

@<TRIPOS>ATOM
      1 C           5.8945   32.7812    5.4143 C.2     2  VAL2        0.2406
      2 O           5.9161   34.0156    5.4159 O.2     2  VAL2       -0.2733
      3 N           4.7055   32.0831    5.5100 N.am    3  ALA3       -0.2970
      4 H           4.7394   31.0986    5.7435 H       3  ALA3        0.1499
      5 CA          3.4099   32.7522    5.5986 C.3     3  ALA3        0.1486
      6 CB          2.7622   32.9217    4.2211 C.3     3  ALA3        0.0312
      7 C           2.4370   31.9359    6.4769 C.2     3  ALA3        0.2407
      8 O           1.3461   31.5455    6.0778 O.2     3  ALA3       -0.2733
      9 N           2.9262   31.6479    7.7397 N.am    4  GLU4       -0.2954
     10 H           3.9367   31.4743    7.7636 H       4  GLU4        0.1499
     11 CA          2.0718   30.9463    8.7218 C.3     4  GLU4        0.1718
     12 C           1.1562   31.9730    9.4319 C.2     4  GLU4        0.3318
     13 O           1.3946   32.4731   10.4979 O.2     4  GLU4       -0.2485
     14 OXT        -0.0093   32.2298    8.7669 O.3     4  GLU4       -0.4791
     15 HXT        -0.1239   31.6378    8.0051 H       4  GLU4        0.2951
     16 CB          2.9316   30.0870    9.6780 C.3     4  GLU4        0.0427
     17 CG          2.4582   28.6382    9.8698 C.3     4  GLU4        0.1116
     18 CD          1.5854   28.4266   11.0994 C.2     4  GLU4        0.3139
     19 OE1         2.0086   28.0636   12.1775 O.2     4  GLU4       -0.2503
     20 OE2         0.2750   28.6941   10.8929 O.3     4  GLU4       -0.4802
     21 HE2         0.0569   29.0484   10.0123 H       4  GLU4        0.2951
     22 CA          7.1772   31.8996    5.2891 C.3     2  VAL2        0.1485
     23 C           7.2276   31.7185    2.7957 C.2     1  ILE1        0.2368
     24 O           6.0943   31.2413    2.7624 O.2     1  ILE1       -0.2737
     25 N           7.8080   32.1125    3.9879 N.am    2  VAL2       -0.2973
     26 H           8.6154   32.7246    3.9476 H       2  VAL2        0.1499
     27 CA          8.0690   31.9470    1.4980 C.3     1  ILE1        0.1282
     28 N           7.6341   30.9828    0.4528 N.3     1  ILE1       -0.3150
     29 H1          7.6995   30.0376    0.8247 H       1  ILE1        0.1192
     30 H2          8.3150   30.9987   -0.3070 H       1  ILE1        0.1192
     31 CB          8.0190   33.4146    0.9623 C.3     1  ILE1        0.0231
     32 CG2         7.3630   33.5211   -0.4265 C.3     1  ILE1        0.0019
     33 CD1         8.2143   35.4401    2.5818 C.3     1  ILE1        0.0001
     34 CG1         7.3046   34.4003    1.9327 C.3     1  ILE1        0.0018
     35 CB          8.1583   32.0733    6.4869 C.3     2  VAL2        0.0269
     36 CG1         8.1652   30.8686    7.4362 C.3     2  VAL2        0.0022
     37 CG2         9.6011   32.4044    6.0928 C.3     2  VAL2        0.0022
@<TRIPOS>BOND
     1    33    34    1
     2    31    32    1
     3    31    34    1
     4    27    28    1
     5    27    23    1
     6    27    31    1
     7    28    29    1
     8    28    30    1
     9    23    24    2
    10    23    25   am
    11    25    26    1
    12    22     1    1
    13    22    35    1
    14    22    25    1
    15     1     2    2
    16     1     3   am
    17     3     5    1
    18     3     4    1
    19     5     6    1
    20     5     7    1
    21     7     8    2
    22     7     9   am
    23     9    11    1
    24     9    10    1
    25    11    16    1
    26    11    12    1
    27    16    17    1
    28    17    18    1
    29    18    19    2
    30    18    20    1
    31    20    21    1
    32    12    13    2
    33    12    14    1
    34    14    15    1
    35    35    36    1
    36    35    37    1
#	Name:			CHEMBL26260
#	Creating user name:	trannguyen
#	Creation time:		Tue Feb  8 18:26:14 2022


#	Modifying user name:	trannguyen
#	Modification time:	Tue Feb  8 18:26:14 2022

@<TRIPOS>MOLECULE
CHEMBL26260
 21 24 0 0 0
SMALL
GASTEIGER

@<TRIPOS>ATOM
      1 O           3.8630   33.2414    8.7086 O.2     1  UNL1       -0.2864
      2 C           4.6045   32.3476    9.0949 C.ar    1  UNL1        0.2016
      3 C           6.0464   32.6342    9.1844 C.ar    1  UNL1        0.0796
      4 C           6.8867   31.6853    9.6100 C.ar    1  UNL1        0.1484
      5 O           6.4894   30.4125    9.9649 O.2     1  UNL1       -0.4533
      6 C           5.1548   30.0965    9.9019 C.ar    1  UNL1        0.1483
      7 C           4.8389   28.7977   10.2877 C.ar    1  UNL1        0.0376
      8 C           3.5166   28.3703   10.2613 C.ar    1  UNL1        0.0031
      9 C           2.4904   29.2309    9.8502 C.ar    1  UNL1        0.0003
     10 C           1.1679   28.7566    9.8389 C.ar    1  UNL1        0.0000
     11 C           0.1134   29.5720    9.4391 C.ar    1  UNL1        0.0000
     12 C           0.3704   30.8750    9.0446 C.ar    1  UNL1        0.0000
     13 C           1.6816   31.3608    9.0506 C.ar    1  UNL1        0.0002
     14 C           2.7862   30.5635    9.4508 C.ar    1  UNL1        0.0060
     15 C           4.1536   30.9839    9.4853 C.ar    1  UNL1        0.0735
     16 C           8.3405   31.9184    9.7093 C.ar    1  UNL1        0.0347
     17 C           9.2311   31.1127    8.9835 C.ar    1  UNL1        0.0030
     18 C          10.6112   31.3120    9.0721 C.ar    1  UNL1        0.0001
     19 C          11.1195   32.3155    9.8933 C.ar    1  UNL1        0.0000
     20 C          10.2497   33.1174   10.6287 C.ar    1  UNL1        0.0001
     21 C           8.8691   32.9187   10.5399 C.ar    1  UNL1        0.0030
@<TRIPOS>BOND
     1     1     2    2
     2     2     3   ar
     3     2    15   ar
     4     3     4   ar
     5     4    16    1
     6     4     5   ar
     7    16    17   ar
     8    16    21   ar
     9    17    18   ar
    10    18    19   ar
    11    19    20   ar
    12    20    21   ar
    13     5     6   ar
    14     6     7   ar
    15     6    15   ar
    16     7     8   ar
    17     8     9   ar
    18     9    10   ar
    19     9    14   ar
    20    10    11   ar
    21    11    12   ar
    22    12    13   ar
    23    13    14   ar
    24    14    15   ar
#	Name:			CHEMBL262777
#	Creating user name:	trannguyen
#	Creation time:		Tue Feb  8 18:26:14 2022


#	Modifying user name:	trannguyen
#	Modification time:	Tue Feb  8 18:26:14 2022

@<TRIPOS>MOLECULE
CHEMBL262777
 122 131 0 0 0
SMALL
GASTEIGER

@<TRIPOS>ATOM
      1 C           7.3572   33.0596    8.7049 C.3     1  UNK1        0.1799
      2 C           8.2695   34.3459    8.7278 C.2     1  UNK1        0.2435
      3 O           9.4980   34.3064    8.7703 O.2     1  UNK1       -0.2732
      4 N           7.6189   35.5708    8.8201 N.am    1  UNK1       -0.2965
      5 C           8.3035   36.8224    9.1700 C.3     1  UNK1        0.1577
      6 C           7.8436   38.0261    8.2557 C.2     1  UNK1        0.2414
      7 O           6.7319   38.5143    8.2433 O.2     1  UNK1       -0.2733
      8 N           8.7222   38.5942    7.3897 N.am    2  UNK2       -0.2936
      9 C           9.6982   37.8526    6.6224 C.3     2  UNK2        0.1718
     10 C          11.1473   38.4386    6.6725 C.2     2  UNK2        0.2452
     11 O          11.6118   39.2286    5.8552 O.2     2  UNK2       -0.2729
     12 N          11.8835   38.0128    7.7563 N.am    3  UNK3       -0.2934
     13 C          13.2816   37.5256    7.6967 C.3     3  UNK3        0.1716
     14 C          14.3632   38.5114    7.2143 C.2     3  UNK3        0.2450
     15 O          14.7579   39.4018    7.9787 O.2     3  UNK3       -0.2729
     16 N          14.9368   38.4820    5.9797 N.am    4  UNK4       -0.2945
     17 C          14.2509   38.3727    4.6772 C.3     4  UNK4        0.1800
     18 C          15.0431   37.3476    3.8520 C.2     4  UNK4        0.2437
     19 O          16.1064   37.6121    3.2917 O.2     4  UNK4       -0.2732
     20 N          14.5455   36.0555    3.8782 N.am    5  UNK5       -0.2920
     21 C          15.2691   34.9917    3.2233 C.3     5  UNK5        0.1945
     22 C          15.4449   33.6377    3.9315 C.ar    5  UNK5        0.0123
     23 C          16.1045   32.7016    3.0541 C.ar    5  UNK5        0.0347
     24 C          16.4519   31.4193    3.4350 C.ar    5  UNK5        0.1364
     25 O          17.0079   30.5327    2.5669 O.3     5  UNK5       -0.5054
     26 C          16.2546   31.0357    4.7328 C.ar    5  UNK5        0.0732
     27 C          15.6572   31.9293    5.6268 C.ar    5  UNK5        0.1365
     28 O          15.5975   31.4137    6.9038 O.3     5  UNK5       -0.5054
     29 C          15.1574   33.2346    5.2747 C.ar    5  UNK5        0.0349
     30 C          14.2938   33.9690    6.2912 C.ar    5  UNK5        0.0361
     31 C          14.3534   35.3563    6.5940 C.ar    5  UNK5        0.0009
     32 C          13.3971   36.0146    7.4199 C.ar    5  UNK5        0.0045
     33 C          12.5360   35.1945    8.1691 C.ar    5  UNK5        0.0009
     34 C          12.5477   33.8216    8.0285 C.ar    5  UNK5        0.0364
     35 C          13.3248   33.2530    7.0330 C.ar    5  UNK5        0.1336
     36 O          13.0386   31.9295    6.7804 O.3     5  UNK5       -0.5055
     37 C          14.2581   39.7704    3.9451 C.3     4  UNK4        0.1595
     38 O          14.1383   40.8094    4.9316 O.3     4  UNK4       -0.3778
     39 C          13.1233   39.8865    2.9441 C.ar    4  UNK4        0.0074
     40 C          12.1419   40.8835    3.0598 C.ar    4  UNK4        0.0013
     41 C          10.8896   40.6887    2.4926 C.ar    4  UNK4        0.0381
     42 C          10.6324   39.4779    1.8527 C.ar    4  UNK4        0.1559
     43 C          11.6854   38.6502    1.4600 C.ar    4  UNK4        0.0919
     44 CL         11.4739   37.2710    0.4540 Cl      4  UNK4       -0.0791
     45 C          12.9480   38.8790    1.9872 C.ar    4  UNK4        0.0126
     46 O           9.3181   39.0496    1.8298 O.3     4  UNK4       -0.4495
     47 C           9.0396   38.1301    2.8455 C.ar    4  UNK4        0.1819
     48 C           9.2007   38.5212    4.1908 C.ar    4  UNK4        0.0387
     49 C           9.2150   37.5647    5.2065 C.ar    4  UNK4        0.0106
     50 C           8.9255   36.2360    4.8682 C.ar    4  UNK4        0.0387
     51 C           8.7797   35.8188    3.5323 C.ar    4  UNK4        0.1819
     52 C           8.7219   36.8006    2.5147 C.ar    4  UNK4        0.2098
     53 O           8.7659   34.4668    3.1500 O.3     4  UNK4       -0.4495
     54 C           8.8794   33.4901    4.1252 C.ar    4  UNK4        0.1559
     55 C           7.8367   32.5793    4.2410 C.ar    4  UNK4        0.0381
     56 C           7.6450   31.8860    5.4408 C.ar    1  UNK1        0.0013
     57 C           8.4917   32.1177    6.5272 C.ar    1  UNK1        0.0074
     58 C           9.7233   32.7242    6.2445 C.ar    1  UNK1        0.0126
     59 C           9.9359   33.3831    5.0231 C.ar    1  UNK1        0.0919
     60 CL         11.4335   34.1491    4.6555 Cl      1  UNK1       -0.0791
     61 C           8.0191   31.8286    7.9519 C.3     1  UNK1        0.1595
     62 O           9.0362   31.2064    8.7368 O.3     1  UNK1       -0.3778
     63 H           6.6755   35.4943    9.1835 H       1  UNK1        0.1499
     64 H           8.2282   39.3264    6.8880 H       2  UNK2        0.1502
     65 H          11.3550   37.6727    8.5464 H       3  UNK3        0.1502
     66 H          15.6640   39.1924    5.9499 H       4  UNK4        0.1500
     67 H          13.5717   35.8822    4.1122 H       5  UNK5        0.1502
     68 H          17.0478   30.9251    1.6789 H       5  UNK5        0.2922
     69 H          14.6769   31.4854    7.2218 H       5  UNK5        0.2922
     70 H          12.9907   31.8412    5.8061 H       5  UNK5        0.2922
     71 H          13.3613   40.5781    5.4827 H       4  UNK4        0.2109
     72 H           9.4176   30.4806    8.2134 H       1  UNK1        0.2109
     73 C           4.8506   32.8124    8.7669 C.2     1  UNK1        0.2371
     74 O           4.9497   32.0798    9.7462 O.2     1  UNK1       -0.2737
     75 N           5.9855   33.3535    8.1975 N.am    1  UNK1       -0.2951
     76 H           5.8403   34.0666    7.4904 H       1  UNK1        0.1499
     77 C           3.4719   33.2199    8.1668 C.3     1  UNK1        0.1315
     78 C           1.4665   32.5291    9.4451 C.3     0  ACE0        0.0862
     79 N           2.5707   33.4770    9.3345 N.3     1  UNK1       -0.2902
     80 H           2.1565   34.3993    9.1701 H       1  UNK1        0.1237
     81 C           2.8799   32.1930    7.1589 C.3     1  UNK1        0.0251
     82 C           3.5850   31.9616    5.7848 C.3     1  UNK1        0.0018
     83 C           2.8158   31.1386    4.7627 C.3     1  UNK1        0.0001
     84 C           4.0299   33.2394    5.1212 C.3     1  UNK1        0.0001
     85 C          14.6175   34.8403    1.8149 C.2     5  UNK5        0.3362
     86 O          15.2114   34.8090    0.7801 O.2     5  UNK5       -0.2481
     87 O          13.2574   34.6995    1.8825 O.3     5  UNK5       -0.4788
     88 H          12.8866   34.6706    2.7908 H       5  UNK5        0.2951
     89 C           8.0953   37.2357   10.6365 C.3     1  UNK1        0.1137
     90 C           9.3141   36.9440   11.4805 C.2     1  UNK1        0.2216
     91 N          10.4041   36.4778   10.8131 N.am    1  UNK1       -0.3287
     92 O           9.3637   37.1097   12.6936 O.2     1  UNK1       -0.2753
     93 H          10.4738   36.4070    9.8088 H       1  UNK1        0.1449
     94 H          11.2352   36.3096   11.3686 H       1  UNK1        0.1449
     95 O           8.3619   36.3741    1.2625 O.3     4  UNK4       -0.4443
     96 C           9.3732   36.0550    0.2671 C.3     4  UNK4        0.3186
     97 O           9.1292   36.5845   -1.0578 O.3     4  UNK4       -0.3160
     98 C           8.5721   35.6747   -2.0159 C.3     4  UNK4        0.1772
     99 C           7.5196   34.7858   -1.3502 C.3     4  UNK4        0.1695
    100 O           6.8777   33.9346   -2.3032 O.3     4  UNK4       -0.3794
    101 C           8.1997   33.9125   -0.2590 C.3     4  UNK4        0.1732
    102 O           7.3119   33.7467    0.8568 O.3     4  UNK4       -0.3793
    103 C           9.5548   34.4974    0.2199 C.3     4  UNK4        0.2165
    104 H           6.0866   33.5570   -1.8812 H       4  UNK4        0.2105
    105 H           6.4779   33.3756    0.5309 H       4  UNK4        0.2105
    106 C           8.0797   36.5193   -3.2007 C.3     4  UNK4        0.1693
    107 O           8.0031   35.7045   -4.3836 O.3     4  UNK4       -0.3794
    108 H           8.7024   35.0279   -4.3036 H       4  UNK4        0.2105
    109 O          10.6681   34.1708   -0.6636 O.3     4  UNK4       -0.3238
    110 C          10.7275   32.8422   -1.1907 C.3     4  UNK4        0.2367
    111 C          10.7279   32.7948   -2.7240 C.3     4  UNK4        0.0780
    112 C          11.9335   33.5193   -3.3389 C.3     4  UNK4        0.0712
    113 C          11.6767   35.0372   -3.3780 C.3     4  UNK4        0.0183
    114 N          12.0734   33.1129   -4.7762 N.3     4  UNK4       -0.3211
    115 C          13.2600   33.1458   -2.5919 C.3     4  UNK4        0.1504
    116 O          13.9617   32.1489   -3.3649 O.3     4  UNK4       -0.3807
    117 C          13.1060   32.6924   -1.1075 C.3     4  UNK4        0.1458
    118 C          14.1790   31.7093   -0.6182 C.3     4  UNK4        0.0348
    119 O          11.8497   32.1032   -0.7526 O.3     4  UNK4       -0.3304
    120 H          12.7605   33.7280   -5.2235 H       4  UNK4        0.1188
    121 H          11.1968   33.2949   -5.2690 H       4  UNK4        0.1188
    122 H          13.4597   32.0797   -4.2057 H       4  UNK4        0.2105
@<TRIPOS>BOND
     1    78    79    1
     2    79    80    1
     3    77    81    1
     4    77    73    1
     5    77    79    1
     6    81    82    1
     7    82    83    1
     8    82    84    1
     9    73    74    2
    10    73    75   am
    11    75    76    1
    12     1     2    1
    13     1    61    1
    14     1    75    1
    15     2     4   am
    16     2     3    2
    17     4     5    1
    18     4    63    1
    19     5     6    1
    20     5    89    1
    21    89    90    1
    22    90    91   am
    23    90    92    2
    24    91    93    1
    25    91    94    1
    26     6     8   am
    27     6     7    2
    28     8     9    1
    29     8    64    1
    30     9    10    1
    31     9    49    1
    32    10    12   am
    33    10    11    2
    34    12    13    1
    35    12    65    1
    36    13    14    1
    37    13    32    1
    38    14    16   am
    39    14    15    2
    40    16    17    1
    41    16    66    1
    42    17    18    1
    43    17    37    1
    44    18    20   am
    45    18    19    2
    46    20    21    1
    47    20    67    1
    48    21    22    1
    49    21    85    1
    50    85    86    2
    51    85    87    1
    52    87    88    1
    53    22    23   ar
    54    22    29   ar
    55    23    24   ar
    56    24    26   ar
    57    24    25    1
    58    25    68    1
    59    26    27   ar
    60    27    29   ar
    61    27    28    1
    62    28    69    1
    63    29    30    1
    64    30    31   ar
    65    30    35   ar
    66    31    32   ar
    67    32    33   ar
    68    33    34   ar
    69    34    35   ar
    70    35    36    1
    71    36    70    1
    72    37    39    1
    73    37    38    1
    74    38    71    1
    75    39    40   ar
    76    39    45   ar
    77    40    41   ar
    78    41    42   ar
    79    42    43   ar
    80    42    46    1
    81    43    45   ar
    82    43    44    1
    83    46    47    1
    84    47    48   ar
    85    47    52   ar
    86    48    49   ar
    87    49    50   ar
    88    50    51   ar
    89    51    52   ar
    90    51    53    1
    91    52    95    1
    92    96    97    1
    93    96   103    1
    94    96    95    1
    95    97    98    1
    96    98   106    1
    97    98    99    1
    98   106   107    1
    99   107   108    1
   100    99   101    1
   101    99   100    1
   102   100   104    1
   103   101   102    1
   104   101   103    1
   105   102   105    1
   106   103   109    1
   107   109   110    1
   108   110   111    1
   109   110   119    1
   110   111   112    1
   111   112   113    1
   112   112   114    1
   113   112   115    1
   114   114   120    1
   115   114   121    1
   116   115   116    1
   117   115   117    1
   118   116   122    1
   119   117   118    1
   120   117   119    1
   121    53    54    1
   122    54    55   ar
   123    54    59   ar
   124    55    56   ar
   125    56    57   ar
   126    57    58   ar
   127    57    61    1
   128    58    59   ar
   129    59    60    1
   130    61    62    1
   131    62    72    1
#	Name:			CHEMBL264374
#	Creating user name:	trannguyen
#	Creation time:		Tue Feb  8 18:26:14 2022


#	Modifying user name:	trannguyen
#	Modification time:	Tue Feb  8 18:26:14 2022

@<TRIPOS>MOLECULE
CHEMBL264374
 27 28 0 0 0
SMALL
GASTEIGER

@<TRIPOS>ATOM
      1 C           8.6527   33.3167    4.7121 C.ar    1  UNL1        0.1390
      2 C           8.8115   32.2988    5.6557 C.ar    1  UNL1        0.0366
      3 C           8.7216   32.5623    7.0296 C.ar    1  UNL1       -0.0011
      4 C           8.5027   33.8611    7.5011 C.ar    1  UNL1       -0.0203
      5 C           8.3286   34.8750    6.5477 C.ar    1  UNL1       -0.0011
      6 C           8.3948   34.6042    5.1711 C.ar    1  UNL1        0.0366
      7 O           8.7728   32.9167    3.4105 O.3     1  UNL1       -0.4720
      8 C           6.5024   31.9562    3.5487 C.3     1  UNL1        0.0553
      9 C           7.6535   32.4411    2.6486 C.3     1  UNL1        0.2210
     10 C           7.1186   33.6892    1.9110 C.3     1  UNL1        0.0553
     11 C           7.9824   31.3820    1.5777 C.2     1  UNL1        0.3503
     12 O           7.2227   30.4622    1.2558 O.2     1  UNL1       -0.2464
     13 O           9.2121   31.4987    1.0340 O.3     1  UNL1       -0.4778
     14 H           9.7534   32.1922    1.4674 H       1  UNL1        0.2952
     15 C           8.4676   34.2190    8.9764 C.3     1  UNL1        0.0476
     16 C           7.0788   34.5095    9.5678 C.3     1  UNL1        0.0944
     17 N           6.3008   33.2987    9.7798 N.am    1  UNL1       -0.3005
     18 C           5.4316   32.7811    8.8324 C.2     1  UNL1        0.2459
     19 O           5.2134   33.2938    7.7434 O.2     1  UNL1       -0.2701
     20 H           6.5309   32.7550   10.5966 H       1  UNL1        0.1497
     21 C           4.7751   31.4901    9.2185 C.ar    1  UNL1        0.0534
     22 C           3.4085   31.2811    9.0138 C.ar    1  UNL1        0.0054
     23 C           2.8032   30.0865    9.4133 C.ar    1  UNL1        0.0115
     24 C           3.5725   29.0801    9.9928 C.ar    1  UNL1        0.0577
     25 CL          2.8230   27.6077   10.4726 Cl      1  UNL1       -0.0822
     26 C           4.9429   29.2573   10.1750 C.ar    1  UNL1        0.0115
     27 C           5.5489   30.4623    9.7870 C.ar    1  UNL1        0.0054
@<TRIPOS>BOND
     1     8     9    1
     2     9    10    1
     3     9     7    1
     4     9    11    1
     5     7     1    1
     6     1     2   ar
     7     1     6   ar
     8     2     3   ar
     9     3     4   ar
    10     4    15    1
    11     4     5   ar
    12    15    16    1
    13    16    17    1
    14    17    18   am
    15    17    20    1
    16    18    19    2
    17    18    21    1
    18    21    22   ar
    19    21    27   ar
    20    22    23   ar
    21    23    24   ar
    22    24    25    1
    23    24    26   ar
    24    26    27   ar
    25     5     6   ar
    26    11    12    2
    27    11    13    1
    28    13    14    1
#	Name:			CHEMBL267044
#	Creating user name:	trannguyen
#	Creation time:		Tue Feb  8 18:26:14 2022


#	Modifying user name:	trannguyen
#	Modification time:	Tue Feb  8 18:26:14 2022

@<TRIPOS>MOLECULE
CHEMBL267044
 26 27 0 0 0
SMALL
GASTEIGER

@<TRIPOS>ATOM
      1 C           3.7888   31.0175    9.0881 C.ar    1  UNL1        0.0886
      2 C           2.8755   30.0868    9.6131 C.ar    1  UNL1        0.0274
      3 C           3.3050   29.0260   10.4007 C.ar    1  UNL1        0.1220
      4 C           4.6641   28.8727   10.6958 C.ar    1  UNL1        0.0230
      5 C           5.5790   29.8070   10.1976 C.ar    1  UNL1        0.0384
      6 C           5.1626   30.8641    9.3662 C.ar    1  UNL1        0.1431
      7 S           2.1541   27.8138   10.9843 S.O2    1  UNL1        0.0572
      8 N           0.7316   28.3340   10.2626 N.3     1  UNL1       -0.2035
      9 O           2.4807   26.5475   10.3974 O.2     1  UNL1       -0.1532
     10 O           1.9551   27.9757   12.4023 O.2     1  UNL1       -0.1532
     11 H           0.4025   27.6033    9.6010 H       1  UNL1        0.1442
     12 H           0.0431   28.5581   10.9745 H       1  UNL1        0.1442
     13 N           3.8866   32.6205    7.2040 N.am    1  UNL1       -0.2994
     14 C           3.1762   32.1051    8.2617 C.2     1  UNL1        0.2489
     15 O           2.0259   32.4619    8.5158 O.2     1  UNL1       -0.2700
     16 H           4.8483   32.3375    7.0504 H       1  UNL1        0.1498
     17 C           3.3188   33.6203    6.3046 C.3     1  UNL1        0.1056
     18 N           4.2309   32.0265    4.6114 N.3     1  UNL1       -0.2724
     19 C           3.3222   31.0190    4.0378 C.3     1  UNL1        0.0721
     20 C           2.2669   31.7926    3.2753 C.3     1  UNL1        0.0188
     21 C           2.0619   33.0274    4.1279 C.3     1  UNL1        0.0191
     22 C           3.4181   33.2581    4.8050 C.3     1  UNL1        0.0772
     23 C           6.2373   30.9920    3.5063 C.3     1  UNL1        0.0188
     24 C           5.3969   32.2473    3.7395 C.3     1  UNL1        0.0721
     25 O           6.0399   31.7766    8.8366 O.3     1  UNL1       -0.4713
     26 C           6.6723   32.6646    9.7597 C.3     1  UNL1        0.2525
@<TRIPOS>BOND
     1    23    24    1
     2    24    18    1
     3    18    19    1
     4    18    22    1
     5    19    20    1
     6    20    21    1
     7    21    22    1
     8    22    17    1
     9    17    13    1
    10    13    14   am
    11    13    16    1
    12    14    15    2
    13    14     1    1
    14     1     2   ar
    15     1     6   ar
    16     2     3   ar
    17     3     7    1
    18     3     4   ar
    19     7     8    1
    20     7     9    2
    21     7    10    2
    22     8    11    1
    23     8    12    1
    24     4     5   ar
    25     5     6   ar
    26     6    25    1
    27    25    26    1
#	Name:			CHEMBL267345
#	Creating user name:	trannguyen
#	Creation time:		Tue Feb  8 18:26:14 2022


#	Modifying user name:	trannguyen
#	Modification time:	Tue Feb  8 18:26:14 2022

@<TRIPOS>MOLECULE
CHEMBL267345
 78 80 0 0 0
SMALL
GASTEIGER

@<TRIPOS>ATOM
      1 C           9.9253   34.5702   -6.3872 C.3     1  UNL1        0.0474
      2 C           9.4487   35.4899   -5.2610 C.3     1  UNL1        0.1712
      3 O           9.3144   34.7766   -3.9928 O.3     1  UNL1       -0.4521
      4 C           8.6913   33.5720   -3.9206 C.2     1  UNL1        0.3194
      5 O           8.0247   33.0493   -4.8029 O.2     1  UNL1       -0.2500
      6 C           9.0395   32.8560   -2.6376 C.3     1  UNL1        0.1387
      7 C           8.3977   33.4654   -1.3918 C.3     1  UNL1        0.1241
      8 O           9.1688   34.5706   -0.9077 O.3     1  UNL1       -0.3838
      9 C           8.2967   32.4047   -0.2728 C.3     1  UNL1        0.0590
     10 C           7.7619   32.9603    1.0568 C.3     1  UNL1        0.1130
     11 O           8.7362   33.8297    1.6293 O.3     1  UNL1       -0.3844
     12 C           7.4559   31.8332    2.0621 C.3     1  UNL1        0.0319
     13 C           6.9376   32.3699    3.4060 C.3     1  UNL1        0.0342
     14 C           7.9355   32.4903    4.5897 C.3     1  UNL1        0.1373
     15 O           9.2803   32.7906    4.2052 O.3     1  UNL1       -0.3820
     16 C           7.4932   33.6373    5.5323 C.3     1  UNL1        0.1396
     17 O           7.6233   34.8601    4.7828 O.3     1  UNL1       -0.3819
     18 C           8.3088   33.7240    6.8477 C.3     1  UNL1        0.0611
     19 C           8.2231   35.1193    7.4947 C.3     1  UNL1        0.1179
     20 O           9.1790   35.9780    6.8528 O.3     1  UNL1       -0.3842
     21 C           8.4853   35.1587    9.0111 C.3     1  UNL1        0.0853
     22 C           7.5196   36.1365    9.7291 C.3     1  UNL1        0.1882
     23 O           6.2196   35.5609    9.6554 O.3     1  UNL1       -0.3634
     24 C           7.8253   36.3244   11.2129 C.3     1  UNL1        0.0859
     25 C           9.0315   37.2248   11.4453 C.3     1  UNL1        0.1283
     26 O           9.0801   37.5884   12.8326 O.3     1  UNL1       -0.3836
     27 C           8.9451   38.5135   10.6320 C.3     1  UNL1        0.1529
     28 C           8.5571   38.2401    9.1721 C.3     1  UNL1        0.1333
     29 C           8.2373   39.5576    8.4300 C.3     1  UNL1        0.0645
     30 C           7.8338   39.3243    6.9607 C.3     1  UNL1        0.1423
     31 C           8.4472   40.3938    6.0907 C.2     1  UNL1        0.0030
     32 C           9.4397   40.1266    5.2306 C.2     1  UNL1       -0.0022
     33 C          10.0194   41.0432    4.2801 C.2     1  UNL1       -0.0003
     34 C           9.3116   41.9059    3.5343 C.2     1  UNL1       -0.0000
     35 C           9.8817   42.5357    2.3639 C.2     1  UNL1       -0.0000
     36 C           9.1306   43.1732    1.4523 C.2     1  UNL1       -0.0000
     37 C           9.6313   43.4027    0.1141 C.2     1  UNL1        0.0000
     38 C           8.8165   43.6853   -0.9143 C.2     1  UNL1        0.0000
     39 C           9.2335   43.4204   -2.2740 C.2     1  UNL1       -0.0000
     40 C           8.3676   43.3784   -3.2981 C.2     1  UNL1       -0.0000
     41 C           8.6711   42.7084   -4.5464 C.2     1  UNL1       -0.0000
     42 C           9.0556   41.4212   -4.5495 C.2     1  UNL1       -0.0003
     43 C           9.2419   40.6119   -5.7292 C.2     1  UNL1       -0.0045
     44 C           9.5355   39.3030   -5.6382 C.2     1  UNL1       -0.0240
     45 C           9.6772   38.3072   -6.7730 C.3     1  UNL1        0.0490
     46 C           9.9244   38.9740   -8.1364 C.3     1  UNL1        0.0072
     47 C           8.4451   37.3520   -6.8165 C.3     1  UNL1        0.1178
     48 O           8.4863   36.5365   -7.9893 O.3     1  UNL1       -0.3840
     49 C           8.2501   36.4335   -5.5675 C.3     1  UNL1        0.0673
     50 C           6.9141   35.6870   -5.7006 C.3     1  UNL1        0.0062
     51 O           7.3979   37.4069    9.1140 O.3     1  UNL1       -0.3361
     52 H          10.1148   34.3653   -1.0241 H       1  UNL1        0.2104
     53 H           8.8844   34.5288    0.9537 H       1  UNL1        0.2103
     54 H           9.4258   32.5199    3.2820 H       1  UNL1        0.2104
     55 H           8.5088   34.7836    4.3620 H       1  UNL1        0.2104
     56 H          10.0420   35.5286    6.8616 H       1  UNL1        0.2103
     57 H           5.7601   36.1605    9.0333 H       1  UNL1        0.2128
     58 H           9.0967   36.7629   13.3526 H       1  UNL1        0.2104
     59 H           8.1796   37.0772   -8.7379 H       1  UNL1        0.2104
     60 C          10.2946   39.1891   10.7000 C.2     1  UNL1        0.3181
     61 O          10.4692   40.4030   10.5993 O.2     1  UNL1       -0.2501
     62 O          11.3222   38.3276   10.8542 O.3     1  UNL1       -0.4801
     63 H          11.0393   37.3941   10.7525 H       1  UNL1        0.2951
     64 O           6.4080   39.3815    6.8648 O.3     1  UNL1       -0.3266
     65 C           5.8138   40.6830    6.7807 C.3     1  UNL1        0.2647
     66 O           6.1646   41.3887    7.9817 O.3     1  UNL1       -0.3286
     67 C           5.7395   42.7546    7.9796 C.3     1  UNL1        0.1460
     68 C           6.2233   43.3835    9.2819 C.3     1  UNL1        0.0348
     69 C           4.2145   42.8609    7.8427 C.3     1  UNL1        0.1541
     70 O           3.7910   44.2268    7.7610 O.3     1  UNL1       -0.3805
     71 C           3.7506   42.1300    6.5676 C.3     1  UNL1        0.1127
     72 N           2.2654   42.2197    6.4816 N.3     1  UNL1       -0.3181
     73 C           4.2749   40.6852    6.5696 C.3     1  UNL1        0.1835
     74 O           3.5924   39.9702    7.6097 O.3     1  UNL1       -0.3783
     75 H           2.8810   44.1710    7.4009 H       1  UNL1        0.2105
     76 H           1.8912   41.7027    7.2853 H       1  UNL1        0.1190
     77 H           1.9537   41.6534    5.6873 H       1  UNL1        0.1190
     78 H           2.7537   39.6720    7.1929 H       1  UNL1        0.2106
@<TRIPOS>BOND
     1     1     2    1
     2     2     3    1
     3     2    49    1
     4     3     4    1
     5     4     5    2
     6     4     6    1
     7     6     7    1
     8     7     9    1
     9     7     8    1
    10     8    52    1
    11     9    10    1
    12    10    12    1
    13    10    11    1
    14    11    53    1
    15    12    13    1
    16    13    14    1
    17    14    15    1
    18    14    16    1
    19    15    54    1
    20    16    18    1
    21    16    17    1
    22    17    55    1
    23    18    19    1
    24    19    21    1
    25    19    20    1
    26    20    56    1
    27    21    22    1
    28    22    23    1
    29    22    24    1
    30    22    51    1
    31    23    57    1
    32    24    25    1
    33    25    26    1
    34    25    27    1
    35    26    58    1
    36    27    28    1
    37    27    60    1
    38    60    61    2
    39    60    62    1
    40    62    63    1
    41    28    29    1
    42    28    51    1
    43    29    30    1
    44    30    64    1
    45    30    31    1
    46    65    66    1
    47    65    73    1
    48    65    64    1
    49    66    67    1
    50    67    68    1
    51    67    69    1
    52    69    71    1
    53    69    70    1
    54    70    75    1
    55    71    72    1
    56    71    73    1
    57    72    76    1
    58    72    77    1
    59    73    74    1
    60    74    78    1
    61    31    32    2
    62    32    33    1
    63    33    34    2
    64    34    35    1
    65    35    36    2
    66    36    37    1
    67    37    38    2
    68    38    39    1
    69    39    40    2
    70    40    41    1
    71    41    42    2
    72    42    43    1
    73    43    44    2
    74    44    45    1
    75    45    47    1
    76    45    46    1
    77    47    48    1
    78    47    49    1
    79    48    59    1
    80    49    50    1
#	Name:			CHEMBL267648
#	Creating user name:	trannguyen
#	Creation time:		Tue Feb  8 18:26:14 2022


#	Modifying user name:	trannguyen
#	Modification time:	Tue Feb  8 18:26:14 2022

@<TRIPOS>MOLECULE
CHEMBL267648
 25 27 0 0 0
SMALL
GASTEIGER

@<TRIPOS>ATOM
      1 N           4.1914   30.1657    9.4110 N.ar    1  UNL1       -0.3257
      2 C           3.3835   29.4523   10.2907 C.ar    1  UNL1        0.0856
      3 C           2.0506   29.3252   10.2301 C.ar    1  UNL1        0.1314
      4 C           1.3713   30.0049    9.1141 C.ar    1  UNL1        0.2047
      5 O           0.1514   29.9100    8.9866 O.2     1  UNL1       -0.2862
      6 C           2.1915   30.7966    8.1716 C.ar    1  UNL1        0.0573
      7 C           1.5439   31.4638    7.1336 C.ar    1  UNL1        0.0355
      8 C           2.2851   32.2152    6.2326 C.ar    1  UNL1        0.1535
      9 F           1.5899   32.8158    5.2547 F       1  UNL1       -0.2029
     10 C           3.6876   32.3249    6.3206 C.ar    1  UNL1        0.0772
     11 C           4.2965   31.6641    7.4181 C.ar    1  UNL1        0.0341
     12 C           3.5868   30.8720    8.3445 C.ar    1  UNL1        0.0644
     13 N           4.4927   33.0696    5.4183 N.pl3   1  UNL1       -0.3029
     14 C           4.2275   32.8633    3.9714 C.3     1  UNL1        0.1082
     15 C           5.1141   33.7566    3.0766 C.3     1  UNL1        0.0938
     16 N           6.5637   33.6671    3.3475 N.3     1  UNL1       -0.2686
     17 C           7.1076   32.3652    2.9623 C.3     1  UNL1        0.0897
     18 C           6.7737   33.9397    4.7821 C.3     1  UNL1        0.0938
     19 C           5.9402   33.0756    5.7597 C.3     1  UNL1        0.1082
     20 C           1.3428   28.5329   11.2547 C.2     1  UNL1        0.3427
     21 O           1.8762   28.1368   12.2831 O.2     1  UNL1       -0.2449
     22 O           0.0480   28.2755   10.9730 O.3     1  UNL1       -0.4770
     23 H          -0.2575   28.6521   10.1115 H       1  UNL1        0.2954
     24 C           6.0283   29.7842   11.0211 C.3     1  UNL1        0.0265
     25 C           5.6539   30.1970    9.6051 C.3     1  UNL1        0.1061
@<TRIPOS>BOND
     1    24    25    1
     2    25     1    1
     3     1     2   ar
     4     1    12   ar
     5     2     3   ar
     6     3    20    1
     7     3     4   ar
     8    20    21    2
     9    20    22    1
    10    22    23    1
    11     4     5    2
    12     4     6   ar
    13     6     7   ar
    14     6    12   ar
    15     7     8   ar
    16     8     9    1
    17     8    10   ar
    18    10    13    1
    19    10    11   ar
    20    13    14    1
    21    13    19    1
    22    14    15    1
    23    15    16    1
    24    16    17    1
    25    16    18    1
    26    18    19    1
    27    11    12   ar
#	Name:			CHEMBL267744
#	Creating user name:	trannguyen
#	Creation time:		Tue Feb  8 18:26:14 2022


#	Modifying user name:	trannguyen
#	Modification time:	Tue Feb  8 18:26:14 2022

@<TRIPOS>MOLECULE
CHEMBL267744
 21 22 0 0 0
SMALL
GASTEIGER

@<TRIPOS>ATOM
      1 C           3.8544   30.6531    9.4375 C.ar    1  UNL1        0.1506
      2 C           2.8074   30.7685    8.5237 C.ar    1  UNL1        0.0380
      3 C           2.9532   31.5460    7.3822 C.ar    1  UNL1        0.0072
      4 C           4.1435   32.2406    7.1370 C.ar    1  UNL1        0.0510
      5 C           5.2413   32.0761    7.9996 C.ar    1  UNL1        0.0742
      6 CL          6.7769   32.7996    7.6389 Cl      1  UNL1       -0.0812
      7 C           5.0795   31.3025    9.1681 C.ar    1  UNL1        0.1021
      8 CL          6.3749   31.1408   10.3205 Cl      1  UNL1       -0.0782
      9 C           4.1740   33.0966    5.9186 C.2     1  UNL1        0.2023
     10 O           3.4955   34.1169    5.9351 O.2     1  UNL1       -0.2860
     11 C           5.0657   32.7175    4.8241 C.ar    1  UNL1        0.0684
     12 C           5.3038   31.4859    4.2360 C.ar    1  UNL1        0.0102
     13 C           6.2769   31.5612    3.1896 C.ar    1  UNL1        0.0076
     14 C           6.7612   32.8298    3.0236 C.ar    1  UNL1        0.0355
     15 S           6.0416   33.9367    4.1087 S.2     1  UNL1       -0.0832
     16 O           3.7801   29.8717   10.5673 O.3     1  UNL1       -0.4629
     17 C           3.4926   28.4805   10.4168 C.3     1  UNL1        0.3139
     18 O           2.1510   26.8535   11.6116 O.2     1  UNL1       -0.2461
     19 C           2.2923   28.0047   11.2296 C.2     1  UNL1        0.3589
     20 O           1.3976   28.9792   11.5188 O.3     1  UNL1       -0.4776
     21 H           1.6496   29.8389   11.1217 H       1  UNL1        0.2952
@<TRIPOS>BOND
     1    18    19    2
     2    19    20    1
     3    19    17    1
     4    20    21    1
     5    17    16    1
     6    16     1    1
     7     1     2   ar
     8     1     7   ar
     9     2     3   ar
    10     3     4   ar
    11     4     9    1
    12     4     5   ar
    13     9    10    2
    14     9    11    1
    15    11    12   ar
    16    11    15   ar
    17    12    13   ar
    18    13    14   ar
    19    14    15   ar
    20     5     6    1
    21     5     7   ar
    22     7     8    1
#	Name:			CHEMBL267894
#	Creating user name:	trannguyen
#	Creation time:		Tue Feb  8 18:26:14 2022


#	Modifying user name:	trannguyen
#	Modification time:	Tue Feb  8 18:26:14 2022

@<TRIPOS>MOLECULE
CHEMBL267894
 18 18 0 0 0
SMALL
GASTEIGER

@<TRIPOS>ATOM
      1 C           2.1371   31.1960    9.0479 C.3     1  UNL1        0.1396
      2 C           2.9171   30.3380   10.0414 C.2     1  UNL1        0.2564
      3 O           4.0969   30.5938   10.2898 O.2     1  UNL1       -0.2724
      4 N           2.3164   29.2432   10.6054 N.am    1  UNL1       -0.1307
      5 C           1.0540   29.0995   10.4666 C.2     1  UNL1        0.2779
      6 O           0.4530   28.0487   11.0221 O.2     1  UNL1       -0.4829
      7 N           0.2129   29.9045    9.8033 N.am    1  UNL1       -0.2412
      8 C           0.6369   31.0044    9.1302 C.2     1  UNL1        0.2366
      9 O          -0.1717   31.7481    8.5795 O.2     1  UNL1       -0.2742
     10 H           1.1350   27.5202   11.4722 H       1  UNL1        0.2949
     11 H          -0.7779   29.7070    9.8249 H       1  UNL1        0.1590
     12 C           1.7596   33.2767   10.5572 C.3     1  UNL1        0.0010
     13 C           2.4546   32.6968    9.3223 C.3     1  UNL1        0.0174
     14 C           2.6098   30.8245    7.6034 C.3     1  UNL1        0.0174
     15 C           2.6517   31.9960    6.5966 C.3     1  UNL1        0.0010
     16 C           1.9909   31.6999    5.2296 C.3     1  UNL1        0.0000
     17 C           1.4455   32.9540    4.5449 C.3     1  UNL1        0.0000
     18 C           3.0006   31.0200    4.2947 C.3     1  UNL1        0.0000
@<TRIPOS>BOND
     1    12    13    1
     2    13     1    1
     3     1    14    1
     4     1     2    1
     5     1     8    1
     6    14    15    1
     7    15    16    1
     8    16    17    1
     9    16    18    1
    10     2     3    2
    11     2     4    1
    12     4     5    2
    13     5     6    1
    14     5     7    1
    15     6    10    1
    16     7     8   am
    17     7    11    1
    18     8     9    2
#	Name:			CHEMBL268291
#	Creating user name:	trannguyen
#	Creation time:		Tue Feb  8 18:26:14 2022


#	Modifying user name:	trannguyen
#	Modification time:	Tue Feb  8 18:26:14 2022

@<TRIPOS>MOLECULE
CHEMBL268291
 5 4 0 0 0
SMALL
GASTEIGER

@<TRIPOS>ATOM
      1 C           2.2837   30.0810   10.2522 C.3     1  UNL1        0.1154
      2 N           2.7082   28.7356   10.5755 N.am    1  UNL1       -0.2688
      3 C           3.9874   28.2416   10.1076 C.3     1  UNL1        0.1154
      4 C           1.9033   27.9096   11.3328 C.2     1  UNL1        0.3030
      5 O           2.1693   26.7608   11.6606 O.2     1  UNL1       -0.2649
@<TRIPOS>BOND
     1     1     2    1
     2     2     3    1
     3     2     4   am
     4     4     5    2
#	Name:			CHEMBL269732
#	Creating user name:	trannguyen
#	Creation time:		Tue Feb  8 18:26:14 2022


#	Modifying user name:	trannguyen
#	Modification time:	Tue Feb  8 18:26:14 2022

@<TRIPOS>MOLECULE
CHEMBL269732
 60 63 0 0 0
SMALL
GASTEIGER

@<TRIPOS>ATOM
      1 C           8.9617   33.6019   -6.0377 C.3     1  UNL1        0.0833
      2 C           9.4945   34.9466   -6.4747 C.2     1  UNL1       -0.0272
      3 C          10.2798   35.2412   -7.5298 C.2     1  UNL1       -0.0478
      4 C          10.7613   34.2618   -8.5637 C.3     1  UNL1        0.0260
      5 C          10.7016   36.6840   -7.7709 C.3     1  UNL1        0.0218
      6 C           9.5246   37.5247   -8.3152 C.3     1  UNL1        0.0065
      7 C           9.8652   38.0987   -9.6861 C.3     1  UNL1        0.0004
      8 C           8.9610   38.5276   -7.2719 C.3     1  UNL1        0.0325
      9 C           9.2056   40.0438   -7.4826 C.3     1  UNL1        0.1448
     10 C           8.0540   40.9203   -6.8776 C.3     1  UNL1        0.1718
     11 O           7.5714   40.2841   -5.6773 O.3     1  UNL1       -0.3261
     12 C           6.5073   40.9068   -4.9516 C.3     1  UNL1        0.2456
     13 O           5.8009   39.8041   -4.4083 O.3     1  UNL1       -0.3580
     14 C           7.1010   41.8543   -3.8837 C.2     1  UNL1        0.2764
     15 O           8.0437   42.6272   -4.0709 O.2     1  UNL1       -0.2814
     16 C           6.4532   41.8198   -2.5158 C.2     1  UNL1        0.2892
     17 O           5.2752   42.2048   -2.4277 O.2     1  UNL1       -0.2666
     18 N           7.2091   41.3998   -1.4252 N.am    1  UNL1       -0.2654
     19 C           6.5347   41.2357   -0.1410 C.3     1  UNL1        0.0943
     20 C           7.3857   41.7664    1.0043 C.3     1  UNL1        0.0216
     21 C           8.7767   41.1420    0.9984 C.3     1  UNL1        0.0040
     22 C           9.4469   41.2815   -0.3669 C.3     1  UNL1        0.0314
     23 C           8.5674   40.8146   -1.5369 C.3     1  UNL1        0.1749
     24 C           8.4487   39.2875   -1.7620 C.2     1  UNL1        0.3354
     25 O           7.5865   38.8001   -2.4942 O.2     1  UNL1       -0.2483
     26 O           9.4397   38.5878   -1.1551 O.3     1  UNL1       -0.4468
     27 C           9.5203   37.1281   -1.2726 C.3     1  UNL1        0.1892
     28 C           9.6746   36.6323   -2.7499 C.3     1  UNL1        0.0715
     29 C          10.6120   37.5685   -3.5184 C.3     1  UNL1        0.0066
     30 C          10.1429   35.1338   -2.8566 C.3     1  UNL1        0.1216
     31 O          11.3712   35.0568   -3.5826 O.3     1  UNL1       -0.3839
     32 C           9.0610   34.2257   -3.4821 C.3     1  UNL1        0.0941
     33 C           9.5220   33.3474   -4.6317 C.2     1  UNL1        0.1570
     34 O          10.3858   32.4875   -4.4270 O.2     1  UNL1       -0.2956
     35 C           5.5528   41.7160   -5.8713 C.3     1  UNL1        0.0616
     36 C           4.1119   41.8365   -5.3652 C.3     1  UNL1        0.0056
     37 C           5.5354   41.0943   -7.2613 C.3     1  UNL1        0.0375
     38 C           6.9121   41.2148   -7.9061 C.3     1  UNL1        0.1450
     39 H           6.4619   39.2827   -3.9069 H       1  UNL1        0.2132
     40 H          11.6189   34.1151   -3.6867 H       1  UNL1        0.2104
     41 C           8.4509   36.5090   -0.3566 C.2     1  UNL1       -0.0088
     42 C           7.1096   36.3546   -1.0314 C.3     1  UNL1        0.0296
     43 C           8.6692   36.1281    0.9221 C.2     1  UNL1       -0.0314
     44 C           7.7307   35.4874    1.9390 C.3     1  UNL1        0.0241
     45 C           8.3604   35.4871    3.3389 C.3     1  UNL1        0.0070
     46 C           7.4717   34.7509    4.3380 C.3     1  UNL1        0.0321
     47 C           7.2706   33.2908    3.9369 C.3     1  UNL1        0.1375
     48 O           6.3878   32.6893    4.8907 O.3     1  UNL1       -0.3820
     49 C           6.7009   33.1483    2.5045 C.3     1  UNL1        0.1423
     50 C           7.4493   34.0426    1.5015 C.3     1  UNL1        0.0364
     51 H           6.4058   31.7310    4.7089 H       1  UNL1        0.2104
     52 O           6.8387   31.7588    2.1193 O.3     1  UNL1       -0.3511
     53 C           7.8946   31.4941    1.1953 C.3     1  UNL1        0.1741
     54 O          10.5051   40.4786   -7.0330 O.3     1  UNL1       -0.3510
     55 C          11.3366   41.1239   -7.9788 C.3     1  UNL1        0.1741
     56 O           6.9720   40.4031   -9.0873 O.3     1  UNL1       -0.3510
     57 C           5.8801   39.4920   -9.2097 C.3     1  UNL1        0.1741
     58 C           7.4224   33.5082   -6.0716 C.3     1  UNL1        0.0377
     59 C           7.5508   32.1150   -8.1578 C.2     1  UNL1       -0.0049
     60 C           6.8975   32.4876   -7.0489 C.2     1  UNL1       -0.0254
@<TRIPOS>BOND
     1    59    60    2
     2    60    58    1
     3    58     1    1
     4     1     2    1
     5     1    33    1
     6     2     3    2
     7     3     5    1
     8     3     4    1
     9     5     6    1
    10     6     8    1
    11     6     7    1
    12     8     9    1
    13     9    10    1
    14     9    54    1
    15    54    55    1
    16    10    11    1
    17    10    38    1
    18    11    12    1
    19    12    14    1
    20    12    35    1
    21    12    13    1
    22    13    39    1
    23    14    16    1
    24    14    15    2
    25    16    18   am
    26    16    17    2
    27    18    19    1
    28    18    23    1
    29    19    20    1
    30    20    21    1
    31    21    22    1
    32    22    23    1
    33    23    24    1
    34    24    26    1
    35    24    25    2
    36    26    27    1
    37    27    28    1
    38    27    41    1
    39    41    42    1
    40    41    43    2
    41    44    45    1
    42    44    50    1
    43    44    43    1
    44    45    46    1
    45    46    47    1
    46    47    49    1
    47    47    48    1
    48    48    51    1
    49    49    52    1
    50    49    50    1
    51    52    53    1
    52    28    30    1
    53    28    29    1
    54    30    32    1
    55    30    31    1
    56    31    40    1
    57    32    33    1
    58    33    34    2
    59    35    37    1
    60    35    36    1
    61    37    38    1
    62    38    56    1
    63    56    57    1
#	Name:			CHEMBL26
#	Creating user name:	trannguyen
#	Creation time:		Tue Feb  8 18:26:14 2022


#	Modifying user name:	trannguyen
#	Modification time:	Tue Feb  8 18:26:14 2022

@<TRIPOS>MOLECULE
CHEMBL26
 26 27 0 0 0
SMALL
GASTEIGER

@<TRIPOS>ATOM
      1 C           4.4583   30.5169    9.6002 C.ar    1  UNL1        0.0886
      2 C           3.9010   29.4271   10.3069 C.ar    1  UNL1        0.0274
      3 C           2.5476   29.1050   10.1658 C.ar    1  UNL1        0.1220
      4 C           1.7316   29.8565    9.3353 C.ar    1  UNL1        0.0230
      5 C           2.2697   30.9369    8.6342 C.ar    1  UNL1        0.0384
      6 C           3.6262   31.2933    8.7696 C.ar    1  UNL1        0.1431
      7 S           1.8902   27.7502   11.0950 S.O2    1  UNL1        0.0572
      8 N           0.2444   27.9102   10.8109 N.3     1  UNL1       -0.2035
      9 O           2.2888   26.5031   10.5033 O.2     1  UNL1       -0.1532
     10 O           2.0706   28.0360   12.4889 O.2     1  UNL1       -0.1532
     11 H          -0.0902   27.1039   10.2801 H       1  UNL1        0.1442
     12 H          -0.2503   28.0579   11.6894 H       1  UNL1        0.1442
     13 N           6.7232   31.1060    8.7830 N.am    1  UNL1       -0.2994
     14 C           5.9233   30.7326    9.8368 C.2     1  UNL1        0.2489
     15 O           6.3756   30.5626   10.9670 O.2     1  UNL1       -0.2700
     16 H           6.3180   31.1715    7.8547 H       1  UNL1        0.1498
     17 C           8.1640   31.2663    8.9246 C.3     1  UNL1        0.1056
     18 N           9.5008   32.7927   10.4192 N.3     1  UNL1       -0.2724
     19 C           9.0231   33.9454   11.1979 C.3     1  UNL1        0.0721
     20 C           7.5420   34.0123   10.8868 C.3     1  UNL1        0.0188
     21 C           7.5192   33.7244    9.4019 C.3     1  UNL1        0.0191
     22 C           8.6533   32.7135    9.1947 C.3     1  UNL1        0.0772
     23 C          11.6659   31.5614   10.1202 C.3     1  UNL1        0.0188
     24 C          10.9279   32.8956   10.0800 C.3     1  UNL1        0.0721
     25 O           4.1734   32.3424    8.0725 O.3     1  UNL1       -0.4713
     26 C           3.8220   33.6493    8.5301 C.3     1  UNL1        0.2525
@<TRIPOS>BOND
     1    23    24    1
     2    24    18    1
     3    18    19    1
     4    18    22    1
     5    19    20    1
     6    20    21    1
     7    21    22    1
     8    22    17    1
     9    17    13    1
    10    13    14   am
    11    13    16    1
    12    14    15    2
    13    14     1    1
    14     1     2   ar
    15     1     6   ar
    16     2     3   ar
    17     3     7    1
    18     3     4   ar
    19     7     8    1
    20     7     9    2
    21     7    10    2
    22     8    11    1
    23     8    12    1
    24     4     5   ar
    25     5     6   ar
    26     6    25    1
    27    25    26    1
#	Name:			CHEMBL270299
#	Creating user name:	trannguyen
#	Creation time:		Tue Feb  8 18:26:14 2022


#	Modifying user name:	trannguyen
#	Modification time:	Tue Feb  8 18:26:14 2022

@<TRIPOS>MOLECULE
CHEMBL270299
 17 17 0 0 0
SMALL
GASTEIGER

@<TRIPOS>ATOM
      1 C           4.0614   32.1835    5.6957 C.ar    1  UNL1       -0.0227
      2 C           4.4402   32.5325    7.0087 C.ar    1  UNL1       -0.0030
      3 C           3.5815   32.3357    8.0941 C.ar    1  UNL1        0.0184
      4 C           2.3260   31.7695    7.8803 C.ar    1  UNL1        0.1103
      5 C           1.9193   31.4154    6.5955 C.ar    1  UNL1        0.0184
      6 C           2.7844   31.6200    5.5166 C.ar    1  UNL1       -0.0030
      7 C           5.4448   31.1479    3.7772 C.3     1  UNL1        0.0044
      8 C           5.0238   32.4363    4.5196 C.3     1  UNL1        0.0189
      9 C           6.3145   33.1104    5.0322 C.3     1  UNL1        0.0044
     10 C           4.3487   33.3607    3.4834 C.3     1  UNL1        0.0044
     11 S           1.2218   31.5157    9.2508 S.O2    1  UNL1        0.0294
     12 O           1.2984   32.6909   10.0959 O.2     1  UNL1       -0.1642
     13 O          -0.0501   31.0804    8.7045 O.2     1  UNL1       -0.1642
     14 C           1.9752   30.1904   10.0697 C.2     1  UNL1        0.1386
     15 C           1.2247   29.1282   10.3905 C.2     1  UNL1        0.0981
     16 C           1.7829   27.9898   11.0284 C.1     1  UNL1        0.1025
     17 N           2.2346   27.0523   11.5354 N.1     1  UNL1       -0.1908
@<TRIPOS>BOND
     1     7     8    1
     2     8     9    1
     3     8    10    1
     4     8     1    1
     5     1     2   ar
     6     1     6   ar
     7     2     3   ar
     8     3     4   ar
     9     4    11    1
    10     4     5   ar
    11    11    12    2
    12    11    13    2
    13    11    14    1
    14    14    15    2
    15    15    16    1
    16    16    17    3
    17     5     6   ar
#	Name:			CHEMBL273348
#	Creating user name:	trannguyen
#	Creation time:		Tue Feb  8 18:26:14 2022


#	Modifying user name:	trannguyen
#	Modification time:	Tue Feb  8 18:26:14 2022

@<TRIPOS>MOLECULE
CHEMBL273348
 32 35 0 0 0
SMALL
GASTEIGER

@<TRIPOS>ATOM
      1 C           5.1554   32.3528    4.6173 C.ar    1  UNL1        0.1610
      2 N           5.5521   32.3189    5.9184 N.ar    1  UNL1       -0.2109
      3 C           4.6574   32.1134    6.9261 C.ar    1  UNL1        0.1524
      4 C           3.2959   31.9907    6.6225 C.ar    1  UNL1        0.0760
      5 C           2.8624   32.0424    5.3003 C.ar    1  UNL1        0.0387
      6 C           3.7999   32.2246    4.3011 C.ar    1  UNL1        0.1717
      7 F           3.3650   32.2829    3.0328 F       1  UNL1       -0.2012
      8 C           2.2949   31.8185    7.6861 C.ar    1  UNL1        0.2063
      9 O           1.0967   31.7256    7.4307 O.2     1  UNL1       -0.2862
     10 C           2.7615   31.7475    9.0764 C.ar    1  UNL1        0.1318
     11 C           4.0854   31.8370    9.2724 C.ar    1  UNL1        0.0911
     12 N           5.0850   32.0281    8.3110 N.ar    1  UNL1       -0.2877
     13 N           7.7385   31.3166    0.5792 N.3     1  UNL1       -0.3208
     14 C           7.5272   32.0689    1.8138 C.3     1  UNL1        0.0726
     15 C           6.8205   33.4001    1.5716 C.3     1  UNL1        0.0387
     16 C           6.3368   33.7945    2.9670 C.3     1  UNL1        0.0937
     17 N           6.1182   32.5207    3.6481 N.pl3   1  UNL1       -0.2900
     18 C           6.5987   31.3952    2.8499 C.3     1  UNL1        0.1077
     19 H           8.2741   31.8845   -0.0772 H       1  UNL1        0.1189
     20 H           6.8438   31.1346    0.1250 H       1  UNL1        0.1189
     21 C           6.4683   32.1364    8.7249 C.ar    1  UNL1        0.0929
     22 C           7.3523   31.0424    8.6300 C.ar    1  UNL1        0.0221
     23 C           8.6964   31.1424    9.0109 C.ar    1  UNL1        0.0313
     24 C           9.1762   32.3325    9.5345 C.ar    1  UNL1        0.1425
     25 F          10.4578   32.4214    9.9111 F       1  UNL1       -0.2041
     26 C           8.3431   33.4276    9.6720 C.ar    1  UNL1        0.0608
     27 C           7.0149   33.3293    9.2565 C.ar    1  UNL1        0.1584
     28 F           6.2732   34.4440    9.3527 F       1  UNL1       -0.2026
     29 C           1.8561   31.5732   10.2312 C.2     1  UNL1        0.3427
     30 O           2.0501   30.7506   11.1181 O.2     1  UNL1       -0.2449
     31 O           0.7860   32.3958   10.2393 O.3     1  UNL1       -0.4770
     32 H           0.7417   33.0182    9.4734 H       1  UNL1        0.2954
@<TRIPOS>BOND
     1    13    14    1
     2    13    19    1
     3    13    20    1
     4    14    15    1
     5    14    18    1
     6    15    16    1
     7    16    17    1
     8    17     1    1
     9    17    18    1
    10     1     2   ar
    11     1     6   ar
    12     2     3   ar
    13     3     4   ar
    14     3    12   ar
    15     4     5   ar
    16     4     8   ar
    17     5     6   ar
    18     6     7    1
    19     8     9    2
    20     8    10   ar
    21    10    29    1
    22    10    11   ar
    23    29    30    2
    24    29    31    1
    25    31    32    1
    26    11    12   ar
    27    12    21    1
    28    21    22   ar
    29    21    27   ar
    30    22    23   ar
    31    23    24   ar
    32    24    25    1
    33    24    26   ar
    34    26    27   ar
    35    27    28    1
#	Name:			CHEMBL275742
#	Creating user name:	trannguyen
#	Creation time:		Tue Feb  8 18:26:14 2022


#	Modifying user name:	trannguyen
#	Modification time:	Tue Feb  8 18:26:14 2022

@<TRIPOS>MOLECULE
CHEMBL275742
 21 22 0 0 0
SMALL
GASTEIGER

@<TRIPOS>ATOM
      1 O           4.0518   32.2558    8.5025 O.3     1  UNL1       -0.4728
      2 C           4.0487   31.0332    9.1567 C.ar    1  UNL1        0.1386
      3 C           5.2034   30.4429    9.6874 C.ar    1  UNL1        0.0369
      4 C           5.1514   29.1803   10.2854 C.ar    1  UNL1        0.0031
      5 C           3.9350   28.5310   10.4285 C.ar    1  UNL1        0.0002
      6 C           2.7506   29.1303   10.0015 C.ar    1  UNL1        0.0029
      7 C           1.5220   28.5129   10.2791 C.ar    1  UNL1        0.0001
      8 C           0.3241   29.0879    9.8744 C.ar    1  UNL1        0.0000
      9 C           0.3497   30.2679    9.1422 C.ar    1  UNL1        0.0001
     10 C           1.5636   30.9004    8.8568 C.ar    1  UNL1        0.0030
     11 C           2.7928   30.3815    9.3120 C.ar    1  UNL1        0.0340
     12 C           5.3120   32.9475    8.4327 C.3     1  UNL1        0.2358
     13 C           6.0043   32.7313    7.0721 C.3     1  UNL1        0.1697
     14 O           6.8752   33.8308    6.7710 O.3     1  UNL1       -0.3793
     15 H           6.3060   34.5954    6.5768 H       1  UNL1        0.2106
     16 C           4.9826   32.5317    5.9340 C.3     1  UNL1        0.1020
     17 N           3.9016   33.5266    6.0108 N.3     1  UNL1       -0.2964
     18 H           3.8389   33.8698    6.9726 H       1  UNL1        0.1233
     19 C           2.2174   33.7311    4.2572 C.3     1  UNL1        0.0171
     20 C           2.5987   33.0214    5.5600 C.3     1  UNL1        0.0541
     21 C           2.6197   31.5095    5.3185 C.3     1  UNL1        0.0171
@<TRIPOS>BOND
     1    19    20    1
     2    20    21    1
     3    20    17    1
     4    17    16    1
     5    17    18    1
     6    16    13    1
     7    13    14    1
     8    13    12    1
     9    14    15    1
    10    12     1    1
    11     1     2    1
    12     2     3   ar
    13     2    11   ar
    14     3     4   ar
    15     4     5   ar
    16     5     6   ar
    17     6     7   ar
    18     6    11   ar
    19     7     8   ar
    20     8     9   ar
    21     9    10   ar
    22    10    11   ar
#	Name:			CHEMBL27577
#	Creating user name:	trannguyen
#	Creation time:		Tue Feb  8 18:26:14 2022


#	Modifying user name:	trannguyen
#	Modification time:	Tue Feb  8 18:26:14 2022

@<TRIPOS>MOLECULE
CHEMBL27577
 13 13 0 0 0
SMALL
GASTEIGER

@<TRIPOS>ATOM
      1 C           2.0076   29.1150    9.8609 C.ar    1  UNL1        0.0867
      2 C           2.7645   30.2658    9.5833 C.ar    1  UNL1        0.0075
      3 C           4.1597   30.2354    9.6339 C.ar    1  UNL1        0.0003
      4 C           4.8168   29.0530    9.9627 C.ar    1  UNL1        0.0031
      5 C           4.0822   27.8998   10.2412 C.ar    1  UNL1        0.0368
      6 C           2.6836   27.9289   10.1910 C.ar    1  UNL1        0.1380
      7 O           1.9965   26.7745   10.4709 O.3     1  UNL1       -0.5054
      8 H           2.6379   26.0702   10.6700 H       1  UNL1        0.2922
      9 N          -0.2364   28.4664   10.5980 N.am    1  UNL1       -0.3252
     10 C           0.5212   29.2514    9.7805 C.2     1  UNL1        0.2457
     11 O          -0.0149   30.0398    9.0094 O.2     1  UNL1       -0.2703
     12 H          -1.2416   28.5436   10.5566 H       1  UNL1        0.1453
     13 H           0.1996   27.8097   11.2365 H       1  UNL1        0.1453
@<TRIPOS>BOND
     1     9    10   am
     2     9    12    1
     3     9    13    1
     4    10    11    2
     5    10     1    1
     6     1     2   ar
     7     1     6   ar
     8     2     3   ar
     9     3     4   ar
    10     4     5   ar
    11     5     6   ar
    12     6     7    1
    13     7     8    1
#	Name:			CHEMBL276717
#	Creating user name:	trannguyen
#	Creation time:		Tue Feb  8 18:26:14 2022


#	Modifying user name:	trannguyen
#	Modification time:	Tue Feb  8 18:26:14 2022

@<TRIPOS>MOLECULE
CHEMBL276717
 35 37 0 0 0
SMALL
GASTEIGER

@<TRIPOS>ATOM
      1 C           4.1217   32.1379    6.2145 C.2     1  UNL1        0.0855
      2 C           5.4816   32.3899    6.3888 C.2     1  UNL1        0.0178
      3 C           6.4184   32.6545    5.2233 C.ar    1  UNL1        0.0016
      4 C           6.7726   31.6538    4.2921 C.ar    1  UNL1        0.0024
      5 C           7.4821   31.9749    3.1176 C.ar    1  UNL1        0.0296
      6 C           7.8392   33.2929    2.8659 C.ar    1  UNL1        0.1401
      7 F           8.4612   33.6109    1.7212 F       1  UNL1       -0.2042
      8 C           7.5432   34.2868    3.7870 C.ar    1  UNL1        0.0296
      9 C           6.8475   33.9669    4.9626 C.ar    1  UNL1        0.0024
     10 C           6.1314   32.4352    7.7878 C.ar    1  UNL1        0.0016
     11 C           6.9958   31.4102    8.2410 C.ar    1  UNL1        0.0024
     12 C           7.5262   31.4089    9.5490 C.ar    1  UNL1        0.0296
     13 C           7.2649   32.4712   10.3994 C.ar    1  UNL1        0.1401
     14 F           7.7642   32.4735   11.6447 F       1  UNL1       -0.2042
     15 C           6.5055   33.5436    9.9530 C.ar    1  UNL1        0.0296
     16 C           5.9411   33.5251    8.6590 C.ar    1  UNL1        0.0024
     17 C           2.4867   34.3325    4.2537 C.3     1  UNL1        0.0758
     18 C           2.7134   32.8722    4.1051 C.ar    1  UNL1        0.1658
     19 N           2.2106   32.2231    3.0722 N.ar    1  UNL1       -0.1123
     20 N           2.6200   30.9433    3.1787 N.ar    1  UNL1       -0.0227
     21 N           3.3896   30.7768    4.2358 N.ar    1  UNL1       -0.0388
     22 N           3.4720   31.9640    4.9188 N.ar    1  UNL1       -0.1953
     23 C           3.2403   31.9968    7.3911 C.2     1  UNL1        0.0171
     24 C           1.9901   31.4971    7.3850 C.2     1  UNL1        0.0041
     25 C           1.1344   31.2821    8.6063 C.3     1  UNL1        0.1350
     26 O          -0.0130   32.1278    8.5238 O.3     1  UNL1       -0.3800
     27 H          -0.1801   32.4586    9.4247 H       1  UNL1        0.2108
     28 C           0.7671   29.8104    8.8635 C.3     1  UNL1        0.0634
     29 C           0.9787   29.2472   10.2768 C.3     1  UNL1        0.1188
     30 O           0.1359   28.0940   10.3701 O.3     1  UNL1       -0.3840
     31 H           0.4416   27.5878   11.1547 H       1  UNL1        0.2104
     32 C           2.4128   28.8260   10.4916 C.3     1  UNL1        0.0710
     33 C           2.6488   27.3348   10.5725 C.2     1  UNL1        0.0528
     34 O           2.9018   26.7209    9.5432 O.co2   1  UNL1       -0.5491
     35 O           2.2361   26.8533   11.6976 O.co2   1  UNL1       -0.5491
@<TRIPOS>UNITY_ATOM_ATTR
34 1
charge -1
@<TRIPOS>BOND
     1    17    18    1
     2    18    19   ar
     3    18    22   ar
     4    19    20   ar
     5    20    21   ar
     6    21    22   ar
     7    22     1    1
     8     1    23    1
     9     1     2    2
    10    23    24    2
    11    24    25    1
    12    25    26    1
    13    25    28    1
    14    26    27    1
    15    28    29    1
    16    29    30    1
    17    29    32    1
    18    30    31    1
    19    32    33    1
    20    33    34   ar
    21    33    35   ar
    22     2     3    1
    23     2    10    1
    24     3     4   ar
    25     3     9   ar
    26     4     5   ar
    27     5     6   ar
    28     6     7    1
    29     6     8   ar
    30     8     9   ar
    31    10    11   ar
    32    10    16   ar
    33    11    12   ar
    34    12    13   ar
    35    13    14    1
    36    13    15   ar
    37    15    16   ar
#	Name:			CHEMBL276832
#	Creating user name:	trannguyen
#	Creation time:		Tue Feb  8 18:26:14 2022


#	Modifying user name:	trannguyen
#	Modification time:	Tue Feb  8 18:26:14 2022

@<TRIPOS>MOLECULE
CHEMBL276832
 15 16 0 0 0
SMALL
GASTEIGER

@<TRIPOS>ATOM
      1 C           1.2642   29.5232    9.5008 C.ar    1  UNL1        0.1630
      2 N           0.4222   30.3423    8.8183 N.ar    1  UNL1       -0.1319
      3 N           0.8821   31.4762    8.2197 N.ar    1  UNL1       -0.1452
      4 C           2.1926   31.7726    8.2988 C.ar    1  UNL1        0.1222
      5 C           3.1165   30.9732    8.9601 C.ar    1  UNL1        0.0237
      6 C           4.4818   31.3107    9.0119 C.ar    1  UNL1        0.0017
      7 C           5.3933   30.4855    9.6687 C.ar    1  UNL1        0.0001
      8 C           4.9537   29.3143   10.2747 C.ar    1  UNL1        0.0001
      9 C           3.6001   28.9716   10.2305 C.ar    1  UNL1        0.0029
     10 C           2.6495   29.7977    9.5805 C.ar    1  UNL1        0.0359
     11 N          -0.6411   28.3647   10.4730 N.3     1  UNL1       -0.2553
     12 N           0.7387   28.3478   10.1263 N.pl3   1  UNL1       -0.2656
     13 H          -1.1920   28.3485    9.6076 H       1  UNL1        0.1404
     14 H          -0.8755   29.2775   10.8830 H       1  UNL1        0.1404
     15 H           1.3511   28.1008   10.9076 H       1  UNL1        0.1675
@<TRIPOS>BOND
     1    11    12    1
     2    11    13    1
     3    11    14    1
     4    12     1    1
     5    12    15    1
     6     1     2   ar
     7     1    10   ar
     8     2     3   ar
     9     3     4   ar
    10     4     5   ar
    11     5     6   ar
    12     5    10   ar
    13     6     7   ar
    14     7     8   ar
    15     8     9   ar
    16     9    10   ar
#	Name:			CHEMBL277100
#	Creating user name:	trannguyen
#	Creation time:		Tue Feb  8 18:26:14 2022


#	Modifying user name:	trannguyen
#	Modification time:	Tue Feb  8 18:26:14 2022

@<TRIPOS>MOLECULE
CHEMBL277100
 32 35 0 0 0
SMALL
GASTEIGER

@<TRIPOS>ATOM
      1 C           5.1738   32.4015    4.2680 C.ar    1  UNL1        0.0772
      2 C           5.5916   32.1944    5.5987 C.ar    1  UNL1        0.0344
      3 C           4.6982   32.1045    6.6864 C.ar    1  UNL1        0.0685
      4 C           3.3233   32.0983    6.3714 C.ar    1  UNL1        0.0576
      5 C           2.8706   32.2400    5.0536 C.ar    1  UNL1        0.0356
      6 C           3.7914   32.4015    4.0252 C.ar    1  UNL1        0.1535
      7 F           3.3247   32.5768    2.7787 F       1  UNL1       -0.2029
      8 C           2.3190   31.9057    7.4391 C.ar    1  UNL1        0.2047
      9 O           1.1130   31.8868    7.2009 O.2     1  UNL1       -0.2862
     10 C           2.7994   31.7261    8.8162 C.ar    1  UNL1        0.1317
     11 C           4.1228   31.8020    9.0155 C.ar    1  UNL1        0.0898
     12 N           5.1329   31.9891    8.0625 N.ar    1  UNL1       -0.3025
     13 C           6.6183   34.3623    0.6651 C.3     1  UNL1        0.0189
     14 C           7.5472   34.1461    1.8645 C.3     1  UNL1        0.0741
     15 C           6.7491   33.9510    3.1804 C.3     1  UNL1        0.1065
     16 N           6.0836   32.6311    3.2176 N.pl3   1  UNL1       -0.3029
     17 C           7.0287   31.5119    3.0009 C.3     1  UNL1        0.1079
     18 C           7.8613   31.7354    1.7134 C.3     1  UNL1        0.0903
     19 N           8.5175   33.0551    1.6288 N.3     1  UNL1       -0.2957
     20 H           8.9329   33.1622    0.7040 H       1  UNL1        0.1233
     21 C           6.5022   32.0841    8.5268 C.ar    1  UNL1        0.0917
     22 C           7.3855   30.9875    8.4617 C.ar    1  UNL1        0.0221
     23 C           8.6952   31.0722    8.9528 C.ar    1  UNL1        0.0313
     24 C           9.1696   32.2782    9.4492 C.ar    1  UNL1        0.1425
     25 F          10.4279   32.3594    9.8988 F       1  UNL1       -0.2041
     26 C           8.3584   33.3975    9.4778 C.ar    1  UNL1        0.0607
     27 C           7.0394   33.2900    9.0406 C.ar    1  UNL1        0.1583
     28 F           6.2755   34.3882    9.1500 F       1  UNL1       -0.2026
     29 C           1.9098   31.4866    9.9749 C.2     1  UNL1        0.3427
     30 O           2.2368   30.8285   10.9479 O.2     1  UNL1       -0.2449
     31 O           0.6861   32.0501    9.8677 O.3     1  UNL1       -0.4770
     32 H           0.5424   32.5536    9.0300 H       1  UNL1        0.2954
@<TRIPOS>BOND
     1    13    14    1
     2    14    15    1
     3    14    19    1
     4    15    16    1
     5    16     1    1
     6    16    17    1
     7     1     2   ar
     8     1     6   ar
     9     2     3   ar
    10     3     4   ar
    11     3    12   ar
    12     4     5   ar
    13     4     8   ar
    14     5     6   ar
    15     6     7    1
    16     8     9    2
    17     8    10   ar
    18    10    29    1
    19    10    11   ar
    20    29    30    2
    21    29    31    1
    22    31    32    1
    23    11    12   ar
    24    12    21    1
    25    21    22   ar
    26    21    27   ar
    27    22    23   ar
    28    23    24   ar
    29    24    25    1
    30    24    26   ar
    31    26    27   ar
    32    27    28    1
    33    17    18    1
    34    18    19    1
    35    19    20    1
#	Name:			CHEMBL277474
#	Creating user name:	trannguyen
#	Creation time:		Tue Feb  8 18:26:14 2022


#	Modifying user name:	trannguyen
#	Modification time:	Tue Feb  8 18:26:14 2022

@<TRIPOS>MOLECULE
CHEMBL277474
 14 15 0 0 0
SMALL
GASTEIGER

@<TRIPOS>ATOM
      1 C           1.5028   28.8402   10.4338 C.3     1  UNL1        0.0518
      2 C           2.3049   29.8210    9.6467 C.ar    1  UNL1        0.0594
      3 C           3.6229   30.0207    9.7760 C.ar    1  UNL1        0.0767
      4 C           3.9764   31.0718    8.7978 C.ar    1  UNL1        0.2801
      5 O           5.1265   31.4458    8.6354 O.2     1  UNL1       -0.2652
      6 N           2.7917   31.4105    8.1324 N.ar    1  UNL1       -0.2145
      7 N           1.7146   30.6547    8.6892 N.ar    1  UNL1       -0.2659
      8 C           0.5643   31.4737    9.1087 C.3     1  UNL1        0.1518
      9 C           2.7083   31.9867    6.8374 C.ar    1  UNL1        0.0841
     10 C           2.1970   31.2549    5.7568 C.ar    1  UNL1        0.0192
     11 C           2.1111   31.8183    4.4789 C.ar    1  UNL1        0.0015
     12 C           2.5326   33.1266    4.2616 C.ar    1  UNL1        0.0001
     13 C           3.0357   33.8730    5.3224 C.ar    1  UNL1        0.0015
     14 C           3.1201   33.3074    6.5990 C.ar    1  UNL1        0.0192
@<TRIPOS>BOND
     1     1     2    1
     2     2     3   ar
     3     2     7   ar
     4     3     4   ar
     5     4     5    2
     6     4     6   ar
     7     6     9    1
     8     6     7   ar
     9     9    10   ar
    10     9    14   ar
    11    10    11   ar
    12    11    12   ar
    13    12    13   ar
    14    13    14   ar
    15     7     8    1
#	Name:			CHEMBL27769
#	Creating user name:	trannguyen
#	Creation time:		Tue Feb  8 18:26:14 2022


#	Modifying user name:	trannguyen
#	Modification time:	Tue Feb  8 18:26:14 2022

@<TRIPOS>MOLECULE
CHEMBL27769
 22 25 0 0 0
SMALL
GASTEIGER

@<TRIPOS>ATOM
      1 C           5.2286   30.5110    9.6245 C.3     1  UNL1        0.0024
      2 C           6.1773   31.6961    9.5908 C.3     1  UNL1        0.0247
      3 C           7.0421   31.4778    8.2651 C.3     1  UNL1        0.0023
      4 C           6.3248   31.9073    6.9455 C.3     1  UNL1        0.0001
      5 C           5.3545   33.1627    6.8953 C.3     1  UNL1        0.0000
      6 C           4.8873   33.4961    8.2958 C.3     1  UNL1        0.0001
      7 C           3.5099   32.8145    8.5645 C.3     1  UNL1        0.0000
      8 C           2.9759   31.7000    7.6240 C.3     1  UNL1        0.0004
      9 C           3.4458   31.6364    6.1416 C.3     1  UNL1        0.0073
     10 C           2.2525   31.1885    5.2693 C.3     1  UNL1        0.0645
     11 C           2.3096   31.9313    3.9754 C.2     1  UNL1        0.1506
     12 O           2.4673   31.3916    2.9213 O.2     1  UNL1       -0.2961
     13 C           2.1595   33.4380    4.1524 C.3     1  UNL1        0.0645
     14 C           2.9816   33.9365    5.4306 C.3     1  UNL1        0.0078
     15 C           4.1909   32.9623    5.7446 C.3     1  UNL1        0.0008
     16 C           5.0394   33.0210    4.4347 C.3     1  UNL1        0.0000
     17 C           5.9008   33.1972    9.4614 C.3     1  UNL1        0.0023
     18 C           7.4687   33.6834    9.7918 C.3     1  UNL1        0.0026
     19 C           8.0579   32.5332   10.7465 C.3     1  UNL1        0.0292
     20 C           6.7667   31.8421   11.0351 C.3     1  UNL1        0.1104
     21 O           6.7067   30.7325   11.8913 O.3     1  UNL1       -0.3845
     22 H           5.8218   30.8034   12.3164 H       1  UNL1        0.2103
@<TRIPOS>BOND
     1     2     3    1
     2     2    17    1
     3     2    20    1
     4     2     1    1
     5     3     4    1
     6     4     5    1
     7     5     6    1
     8     5    15    1
     9     6     7    1
    10     6    17    1
    11     7     8    1
    12     8     9    1
    13     9    10    1
    14     9    15    1
    15    10    11    1
    16    11    13    1
    17    11    12    2
    18    13    14    1
    19    14    15    1
    20    15    16    1
    21    17    18    1
    22    18    19    1
    23    19    20    1
    24    20    21    1
    25    21    22    1
#	Name:			CHEMBL278172
#	Creating user name:	trannguyen
#	Creation time:		Tue Feb  8 18:26:14 2022


#	Modifying user name:	trannguyen
#	Modification time:	Tue Feb  8 18:26:14 2022

@<TRIPOS>MOLECULE
CHEMBL278172
 14 14 0 0 0
SMALL
GASTEIGER

@<TRIPOS>ATOM
      1 C           2.1937   30.5540    8.9180 C.ar    1  UNL1        0.0757
      2 C           3.3905   30.0869    9.4751 C.ar    1  UNL1        0.0077
      3 C           3.3762   29.0181   10.3767 C.ar    1  UNL1        0.0143
      4 C           2.1808   28.3743   10.7039 C.ar    1  UNL1        0.0415
      5 N           2.1667   27.3757   11.6834 N.pl3   1  UNL1       -0.3570
      6 C           0.9823   28.8957   10.2102 C.ar    1  UNL1        0.0143
      7 C           0.9857   29.9639    9.3070 C.ar    1  UNL1        0.0077
      8 H           3.0351   26.8527   11.7450 H       1  UNL1        0.1424
      9 H           1.3581   26.7635   11.6306 H       1  UNL1        0.1424
     10 C           2.1570   31.6582    7.9201 C.2     1  UNL1        0.3412
     11 O           2.6978   32.7419    8.0864 O.2     1  UNL1       -0.2449
     12 O           1.4270   31.2848    6.8403 O.3     1  UNL1       -0.4454
     13 C           1.4093   32.3669    4.6726 C.3     1  UNL1        0.0513
     14 C           2.0958   31.3581    5.5733 C.3     1  UNL1        0.2089
@<TRIPOS>BOND
     1    13    14    1
     2    14    12    1
     3    12    10    1
     4    10    11    2
     5    10     1    1
     6     1     2   ar
     7     1     7   ar
     8     2     3   ar
     9     3     4   ar
    10     4     5    1
    11     4     6   ar
    12     5     8    1
    13     5     9    1
    14     6     7   ar
#	Name:			CHEMBL27
#	Creating user name:	trannguyen
#	Creation time:		Tue Feb  8 18:26:14 2022


#	Modifying user name:	trannguyen
#	Modification time:	Tue Feb  8 18:26:14 2022

@<TRIPOS>MOLECULE
CHEMBL27
 21 22 0 0 0
SMALL
GASTEIGER

@<TRIPOS>ATOM
      1 O           4.1118   32.0077    9.1800 O.3     1  UNL1       -0.4728
      2 C           3.9416   30.6826    9.5082 C.ar    1  UNL1        0.1386
      3 C           5.0083   29.7997    9.7182 C.ar    1  UNL1        0.0369
      4 C           4.7758   28.4977   10.1422 C.ar    1  UNL1        0.0031
      5 C           3.4749   28.0434   10.3159 C.ar    1  UNL1        0.0002
      6 C           2.3841   28.8713   10.0197 C.ar    1  UNL1        0.0029
      7 C           1.0798   28.3667   10.1215 C.ar    1  UNL1        0.0001
      8 C          -0.0195   29.1529    9.7871 C.ar    1  UNL1        0.0000
      9 C           0.1722   30.4684    9.3737 C.ar    1  UNL1        0.0001
     10 C           1.4704   30.9925    9.2981 C.ar    1  UNL1        0.0030
     11 C           2.6048   30.2092    9.6055 C.ar    1  UNL1        0.0340
     12 C           4.7690   32.3082    7.9443 C.3     1  UNL1        0.2358
     13 C           3.8493   33.1290    7.0376 C.3     1  UNL1        0.1697
     14 O           3.2428   34.1781    7.8024 O.3     1  UNL1       -0.3793
     15 H           2.4327   33.7873    8.1864 H       1  UNL1        0.2106
     16 C           2.7563   32.2903    6.3345 C.3     1  UNL1        0.1020
     17 N           2.0750   33.0129    5.2383 N.3     1  UNL1       -0.2964
     18 H           1.0684   32.8497    5.3085 H       1  UNL1        0.1233
     19 C           3.6250   33.4380    3.3873 C.3     1  UNL1        0.0171
     20 C           2.5050   32.5312    3.9070 C.3     1  UNL1        0.0541
     21 C           2.9900   31.0789    3.9159 C.3     1  UNL1        0.0171
@<TRIPOS>BOND
     1    19    20    1
     2    20    21    1
     3    20    17    1
     4    17    16    1
     5    17    18    1
     6    16    13    1
     7    13    14    1
     8    13    12    1
     9    14    15    1
    10    12     1    1
    11     1     2    1
    12     2     3   ar
    13     2    11   ar
    14     3     4   ar
    15     4     5   ar
    16     5     6   ar
    17     6     7   ar
    18     6    11   ar
    19     7     8   ar
    20     8     9   ar
    21     9    10   ar
    22    10    11   ar
#	Name:			CHEMBL28079
#	Creating user name:	trannguyen
#	Creation time:		Tue Feb  8 18:26:14 2022


#	Modifying user name:	trannguyen
#	Modification time:	Tue Feb  8 18:26:14 2022

@<TRIPOS>MOLECULE
CHEMBL28079
 22 24 0 0 0
SMALL
GASTEIGER

@<TRIPOS>ATOM
      1 C           3.6072   30.3915    9.5742 C.ar    1  UNL1        0.1475
      2 N           3.6830   29.5629   10.5810 N.ar    1  UNL1       -0.2063
      3 C           2.4778   28.9358   10.9096 C.ar    1  UNL1        0.2085
      4 N           2.2468   28.0106   11.8843 N.ar    1  UNL1       -0.1092
      5 N           0.9482   27.7082   11.8537 N.ar    1  UNL1       -0.0656
      6 N           0.3855   28.4461   10.8736 N.ar    1  UNL1       -0.2506
      7 H          -0.6108   28.3668   10.7040 H       1  UNL1        0.1909
      8 C           1.3189   29.2111   10.2590 C.ar    1  UNL1        0.1689
      9 C           1.2167   30.1215    9.1819 C.ar    1  UNL1        0.2789
     10 O           0.1841   30.4037    8.5954 O.2     1  UNL1       -0.2654
     11 N           2.4427   30.6716    8.8773 N.ar    1  UNL1       -0.3050
     12 H           2.4695   31.3020    8.0912 H       1  UNL1        0.1704
     13 C           4.8445   32.2632    8.3003 C.ar    1  UNL1        0.1414
     14 C           6.0807   32.8177    7.9298 C.ar    1  UNL1        0.0370
     15 C           7.2822   32.2980    8.4263 C.ar    1  UNL1        0.0031
     16 C           7.2694   31.2232    9.3057 C.ar    1  UNL1        0.0003
     17 C           6.0550   30.6453    9.6633 C.ar    1  UNL1        0.0060
     18 C           4.8384   31.1418    9.1574 C.ar    1  UNL1        0.0680
     19 O           3.6355   32.7385    7.8554 O.3     1  UNL1       -0.4754
     20 C           3.5410   33.1701    6.4906 C.3     1  UNL1        0.2054
     21 C           2.0935   31.3952    5.4043 C.3     1  UNL1        0.0040
     22 C           3.5030   31.9404    5.5818 C.3     1  UNL1        0.0473
@<TRIPOS>BOND
     1    21    22    1
     2    22    20    1
     3    20    19    1
     4    19    13    1
     5    13    14   ar
     6    13    18   ar
     7    14    15   ar
     8    15    16   ar
     9    16    17   ar
    10    17    18   ar
    11    18     1    1
    12     1     2   ar
    13     1    11   ar
    14     2     3   ar
    15     3     4   ar
    16     3     8   ar
    17     4     5   ar
    18     5     6   ar
    19     6     7    1
    20     6     8   ar
    21     8     9   ar
    22     9    10    2
    23     9    11   ar
    24    11    12    1
#	Name:			CHEMBL280998
#	Creating user name:	trannguyen
#	Creation time:		Tue Feb  8 18:26:14 2022


#	Modifying user name:	trannguyen
#	Modification time:	Tue Feb  8 18:26:14 2022

@<TRIPOS>MOLECULE
CHEMBL280998
 10 10 0 0 0
SMALL
GASTEIGER

@<TRIPOS>ATOM
      1 O           0.0741   28.1756   10.8924 O.3     1  UNL1       -0.5029
      2 C           1.3421   28.5364   10.5310 C.ar    1  UNL1        0.1675
      3 C           1.5752   29.7610    9.9072 C.ar    1  UNL1        0.0398
      4 C           2.8762   30.1114    9.5403 C.ar    1  UNL1        0.0033
      5 C           3.9365   29.2413    9.7986 C.ar    1  UNL1        0.0033
      6 C           3.7015   28.0157   10.4254 C.ar    1  UNL1        0.0398
      7 C           2.4019   27.6664   10.7894 C.ar    1  UNL1        0.1675
      8 O           2.1536   26.4686   11.3994 O.3     1  UNL1       -0.5029
      9 H          -0.5422   28.8686   10.6121 H       1  UNL1        0.2923
     10 H           2.9840   25.9751   11.4732 H       1  UNL1        0.2923
@<TRIPOS>BOND
     1     1     2    1
     2     1     9    1
     3     2     3   ar
     4     2     7   ar
     5     3     4   ar
     6     4     5   ar
     7     5     6   ar
     8     6     7   ar
     9     7     8    1
    10     8    10    1
#	Name:			CHEMBL282468
#	Creating user name:	trannguyen
#	Creation time:		Tue Feb  8 18:26:14 2022


#	Modifying user name:	trannguyen
#	Modification time:	Tue Feb  8 18:26:14 2022

@<TRIPOS>MOLECULE
CHEMBL282468
 8 7 0 0 0
SMALL
GASTEIGER

@<TRIPOS>ATOM
      1 C           3.2884   30.0522    9.8627 C.3     1  UNL1        0.1711
      2 N           2.0957   30.7834    9.2256 N.4     1  UNL1        0.3125
      3 C           1.8286   32.0289   10.0684 C.3     1  UNL1        0.1711
      4 C           2.4880   31.1984    7.8239 C.3     1  UNL1        0.1711
      5 C           0.8985   29.8220    9.2508 C.3     1  UNL1        0.1416
      6 C           0.9705   28.7260   10.3270 C.3     1  UNL1        0.1989
      7 O          -0.3306   28.3056   10.7297 O.3     1  UNL1       -0.3768
      8 H          -0.2127   27.5765   11.3655 H       1  UNL1        0.2107
@<TRIPOS>UNITY_ATOM_ATTR
2 1
charge 1
@<TRIPOS>BOND
     1     1     2    1
     2     2     3    1
     3     2     4    1
     4     2     5    1
     5     5     6    1
     6     6     7    1
     7     7     8    1
#	Name:			CHEMBL282575
#	Creating user name:	trannguyen
#	Creation time:		Tue Feb  8 18:26:14 2022


#	Modifying user name:	trannguyen
#	Modification time:	Tue Feb  8 18:26:14 2022

@<TRIPOS>MOLECULE
CHEMBL282575
 29 33 0 0 0
SMALL
GASTEIGER

@<TRIPOS>ATOM
      1 C           7.9962   35.2462   -5.9601 C.3     1  UNL1        0.0024
      2 C           9.0056   34.7168   -4.9260 C.3     1  UNL1        0.0248
      3 C           8.6744   33.2319   -4.6297 C.3     1  UNL1        0.0027
      4 C           8.6288   32.8570   -3.1512 C.3     1  UNL1        0.0044
      5 C           7.6689   33.7552   -2.3468 C.3     1  UNL1        0.0220
      6 C           7.5954   33.4281   -0.8571 C.ar    1  UNL1       -0.0263
      7 C           7.8265   32.1301   -0.3706 C.ar    1  UNL1       -0.0015
      8 C           7.6768   31.8340    0.9836 C.ar    1  UNL1        0.0373
      9 C           7.2845   32.8323    1.8680 C.ar    1  UNL1        0.1484
     10 C           7.0078   34.1128    1.4141 C.ar    1  UNL1        0.0330
     11 C           7.1758   34.4174    0.0572 C.ar    1  UNL1       -0.0231
     12 C           6.8795   35.8113   -0.4184 C.3     1  UNL1        0.0261
     13 C           7.9152   36.2000   -1.4556 C.3     1  UNL1        0.0050
     14 C           7.8526   35.2707   -2.6792 C.3     1  UNL1        0.0044
     15 C           9.0038   35.5889   -3.6508 C.3     1  UNL1        0.0027
     16 C          10.4262   35.4696   -3.0616 C.3     1  UNL1        0.0026
     17 C          11.3034   34.8396   -4.1461 C.3     1  UNL1        0.0292
     18 C          10.4645   34.8777   -5.4184 C.3     1  UNL1        0.1104
     19 O          10.6767   36.1228   -6.0810 O.3     1  UNL1       -0.3845
     20 H          10.5338   36.8438   -5.4453 H       1  UNL1        0.2103
     21 O           7.1114   32.4275    3.2019 O.3     1  UNL1       -0.4210
     22 C           6.3556   33.1414    4.1153 C.2     1  UNL1        0.3457
     23 O           6.7423   33.9881    4.9093 O.2     1  UNL1       -0.2445
     24 C           4.9400   32.7052    3.9971 C.ar    1  UNL1        0.0760
     25 C           3.9446   33.6873    3.9223 C.ar    1  UNL1        0.0065
     26 C           2.6039   33.3184    3.8082 C.ar    1  UNL1        0.0002
     27 C           2.2514   31.9693    3.7691 C.ar    1  UNL1        0.0000
     28 C           3.2353   30.9855    3.8461 C.ar    1  UNL1        0.0002
     29 C           4.5764   31.3500    3.9600 C.ar    1  UNL1        0.0065
@<TRIPOS>BOND
     1     2     1    1
     2     2     3    1
     3     2    15    1
     4     2    18    1
     5     3     4    1
     6     4     5    1
     7     5     6    1
     8     5    14    1
     9     6     7   ar
    10     6    11   ar
    11     7     8   ar
    12     8     9   ar
    13     9    21    1
    14     9    10   ar
    15    21    22    1
    16    22    23    2
    17    22    24    1
    18    24    25   ar
    19    24    29   ar
    20    25    26   ar
    21    26    27   ar
    22    27    28   ar
    23    28    29   ar
    24    10    11   ar
    25    11    12    1
    26    12    13    1
    27    13    14    1
    28    14    15    1
    29    15    16    1
    30    16    17    1
    31    17    18    1
    32    18    19    1
    33    19    20    1
#	Name:			CHEMBL283196
#	Creating user name:	trannguyen
#	Creation time:		Tue Feb  8 18:26:14 2022


#	Modifying user name:	trannguyen
#	Modification time:	Tue Feb  8 18:26:14 2022

@<TRIPOS>MOLECULE
CHEMBL283196
 21 24 0 0 0
SMALL
GASTEIGER

@<TRIPOS>ATOM
      1 O           4.2646   34.4851    8.7699 O.2     1  UNL1       -0.2864
      2 C           4.7746   33.3849    8.9363 C.ar    1  UNL1        0.2016
      3 C           6.2311   33.2081    8.8535 C.ar    1  UNL1        0.0796
      4 C           6.7518   31.9895    9.0515 C.ar    1  UNL1        0.1484
      5 O           6.0025   30.8561    9.3184 O.2     1  UNL1       -0.4533
      6 C           4.6316   30.9636    9.4065 C.ar    1  UNL1        0.1482
      7 C           3.9788   32.1829    9.2262 C.ar    1  UNL1        0.0735
      8 C           2.5896   32.2664    9.3171 C.ar    1  UNL1        0.0062
      9 C           1.8475   31.1178    9.5903 C.ar    1  UNL1        0.0003
     10 C           2.4820   29.8786    9.7759 C.ar    1  UNL1        0.0029
     11 C           1.7305   28.7248   10.0508 C.ar    1  UNL1        0.0001
     12 C           2.3540   27.4909   10.2372 C.ar    1  UNL1        0.0000
     13 C           3.7379   27.3934   10.1521 C.ar    1  UNL1        0.0001
     14 C           4.5002   28.5305    9.8794 C.ar    1  UNL1        0.0030
     15 C           3.8940   29.7903    9.6855 C.ar    1  UNL1        0.0347
     16 C           8.2050   31.7451    8.9703 C.ar    1  UNL1        0.0347
     17 C           8.7063   30.7988    8.0635 C.ar    1  UNL1        0.0030
     18 C          10.0778   30.5458    7.9787 C.ar    1  UNL1        0.0001
     19 C          10.9655   31.2312    8.8046 C.ar    1  UNL1        0.0000
     20 C          10.4833   32.1664    9.7174 C.ar    1  UNL1        0.0001
     21 C           9.1115   32.4202    9.8022 C.ar    1  UNL1        0.0030
@<TRIPOS>BOND
     1     1     2    2
     2     2     3   ar
     3     2     7   ar
     4     3     4   ar
     5     4    16    1
     6     4     5   ar
     7    16    17   ar
     8    16    21   ar
     9    17    18   ar
    10    18    19   ar
    11    19    20   ar
    12    20    21   ar
    13     5     6   ar
    14     6     7   ar
    15     6    15   ar
    16     7     8   ar
    17     8     9   ar
    18     9    10   ar
    19    10    11   ar
    20    10    15   ar
    21    11    12   ar
    22    12    13   ar
    23    13    14   ar
    24    14    15   ar
#	Name:			CHEMBL286398
#	Creating user name:	trannguyen
#	Creation time:		Tue Feb  8 18:26:14 2022


#	Modifying user name:	trannguyen
#	Modification time:	Tue Feb  8 18:26:14 2022

@<TRIPOS>MOLECULE
CHEMBL286398
 7 6 0 0 0
SMALL
GASTEIGER

@<TRIPOS>ATOM
      1 C           3.6907   27.8538   10.2261 C.3     1  UNL1        0.0344
      2 C           2.2641   27.4406   10.5465 C.3     1  UNL1        0.1398
      3 O           2.2597   26.5361   11.6584 O.3     1  UNL1       -0.3819
      4 H           2.7667   26.9471   12.3809 H       1  UNL1        0.2104
      5 C           1.3779   28.6400   10.8933 C.3     1  UNL1        0.1662
      6 O           0.0096   28.2356   10.9025 O.3     1  UNL1       -0.3795
      7 H           0.0022   27.3260   11.2612 H       1  UNL1        0.2105
@<TRIPOS>BOND
     1     1     2    1
     2     2     3    1
     3     2     5    1
     4     3     4    1
     5     5     6    1
     6     6     7    1
#	Name:			CHEMBL289469
#	Creating user name:	trannguyen
#	Creation time:		Tue Feb  8 18:26:14 2022


#	Modifying user name:	trannguyen
#	Modification time:	Tue Feb  8 18:26:14 2022

@<TRIPOS>MOLECULE
CHEMBL289469
 24 27 0 0 0
SMALL
GASTEIGER

@<TRIPOS>ATOM
      1 N           7.0266   31.2202    8.9344 N.am    1  UNL1       -0.3011
      2 C           6.2773   31.2189   10.0928 C.2     1  UNL1        0.2653
      3 O           6.7680   31.3763   11.2062 O.2     1  UNL1       -0.2684
      4 H           6.4895   31.1836    8.0718 H       1  UNL1        0.1497
      5 C          11.7371   33.0723    6.5347 C.3     1  UNL1        0.0896
      6 N          10.5340   32.5842    7.2020 N.3     1  UNL1       -0.2740
      7 C          10.1798   33.3548    8.4030 C.3     1  UNL1        0.0591
      8 C          11.1762   33.1455    9.5603 C.3     1  UNL1        0.0161
      9 C          11.4920   31.6854    9.8753 C.3     1  UNL1        0.0028
     10 C          11.6035   30.8172    8.6247 C.3     1  UNL1        0.0161
     11 C          10.5861   31.1502    7.5171 C.3     1  UNL1        0.0591
     12 C           9.1530   30.6860    7.8333 C.3     1  UNL1        0.0356
     13 C           8.4543   31.5095    8.9185 C.3     1  UNL1        0.0746
     14 C           8.7211   33.0131    8.7665 C.3     1  UNL1        0.0356
     15 C           4.8358   31.0153    9.8664 C.ar    1  UNL1        0.1554
     16 N           4.0017   32.0374    9.5741 N.ar    1  UNL1       -0.1646
     17 N           2.7983   31.4419    9.4340 N.ar    1  UNL1       -0.2487
     18 C           1.6459   32.2333    9.0692 C.3     1  UNL1        0.1537
     19 C           2.8074   30.0879    9.6529 C.ar    1  UNL1        0.0795
     20 C           1.7934   29.1187    9.6344 C.ar    1  UNL1        0.0188
     21 C           2.1598   27.7957    9.9048 C.ar    1  UNL1        0.0015
     22 C           3.4842   27.4553   10.1719 C.ar    1  UNL1        0.0001
     23 C           4.4828   28.4341   10.1821 C.ar    1  UNL1        0.0032
     24 C           4.1354   29.7747    9.9253 C.ar    1  UNL1        0.0411
@<TRIPOS>BOND
     1     5     6    1
     2     6     7    1
     3     6    11    1
     4     7     8    1
     5     7    14    1
     6     8     9    1
     7     9    10    1
     8    10    11    1
     9    11    12    1
    10    12    13    1
    11    13     1    1
    12    13    14    1
    13     1     2   am
    14     1     4    1
    15     2     3    2
    16     2    15    1
    17    15    16   ar
    18    15    24   ar
    19    16    17   ar
    20    17    18    1
    21    17    19   ar
    22    19    20   ar
    23    19    24   ar
    24    20    21   ar
    25    21    22   ar
    26    22    23   ar
    27    23    24   ar
#	Name:			CHEMBL290106
#	Creating user name:	trannguyen
#	Creation time:		Tue Feb  8 18:26:14 2022


#	Modifying user name:	trannguyen
#	Modification time:	Tue Feb  8 18:26:14 2022

@<TRIPOS>MOLECULE
CHEMBL290106
 21 22 0 0 0
SMALL
GASTEIGER

@<TRIPOS>ATOM
      1 S           2.7629   32.8492    8.7217 S.3     1  UNL1       -0.0807
      2 O           1.2058   32.2537    6.1310 O.3     1  UNL1       -0.5041
      3 C           2.5668   32.3249    5.9634 C.ar    1  UNL1        0.1500
      4 C           3.1296   32.1314    4.6953 C.ar    1  UNL1        0.0926
      5 CL          2.1171   31.8198    3.3319 Cl      1  UNL1       -0.0790
      6 C           4.5091   32.1870    4.5147 C.ar    1  UNL1        0.0259
      7 C           5.3273   32.4340    5.6131 C.ar    1  UNL1        0.0592
      8 CL          7.0340   32.5022    5.4019 Cl      1  UNL1       -0.0822
      9 C           4.7803   32.6289    6.8814 C.ar    1  UNL1        0.0210
     10 C           3.3916   32.5869    7.0667 C.ar    1  UNL1        0.0649
     11 H           0.8102   32.0475    5.2636 H       1  UNL1        0.2923
     12 C           2.3945   31.1713    9.2246 C.ar    1  UNL1        0.0649
     13 C           3.4739   30.3200    9.4978 C.ar    1  UNL1        0.0210
     14 C           3.2485   29.0029    9.8982 C.ar    1  UNL1        0.0592
     15 CL          4.5864   27.9693   10.2196 Cl      1  UNL1       -0.0822
     16 C           1.9534   28.5137   10.0402 C.ar    1  UNL1        0.0259
     17 C           0.8769   29.3575    9.7791 C.ar    1  UNL1        0.0926
     18 CL         -0.7286   28.7485    9.9593 Cl      1  UNL1       -0.0790
     19 C           1.0889   30.6825    9.3768 C.ar    1  UNL1        0.1500
     20 O           0.0187   31.5085    9.1351 O.3     1  UNL1       -0.5041
     21 H          -0.7944   30.9988    9.3088 H       1  UNL1        0.2923
@<TRIPOS>BOND
     1     2     3    1
     2     2    11    1
     3     3     4   ar
     4     3    10   ar
     5     4     5    1
     6     4     6   ar
     7     6     7   ar
     8     7     8    1
     9     7     9   ar
    10     9    10   ar
    11    10     1    1
    12     1    12    1
    13    12    13   ar
    14    12    19   ar
    15    13    14   ar
    16    14    15    1
    17    14    16   ar
    18    16    17   ar
    19    17    18    1
    20    17    19   ar
    21    19    20    1
    22    20    21    1
#	Name:			CHEMBL290916
#	Creating user name:	trannguyen
#	Creation time:		Tue Feb  8 18:26:14 2022


#	Modifying user name:	trannguyen
#	Modification time:	Tue Feb  8 18:26:14 2022

@<TRIPOS>MOLECULE
CHEMBL290916
 13 14 0 0 0
SMALL
GASTEIGER

@<TRIPOS>ATOM
      1 C           4.1432   29.4803   10.2110 C.3     1  UNL1        0.0494
      2 C           3.1765   30.2751    9.4046 C.2     1  UNL1        0.0643
      3 N           3.4716   30.8478    8.2806 N.2     1  UNL1       -0.1798
      4 N           2.3172   31.4819    7.8523 N.am    1  UNL1       -0.1588
      5 C           1.2287   31.3198    8.7251 C.2     1  UNL1        0.2540
      6 O           0.0811   31.7314    8.6668 O.2     1  UNL1       -0.2724
      7 C           1.7651   30.4779    9.8440 C.3     1  UNL1        0.1301
      8 C           2.3530   32.1992    6.6294 C.ar    1  UNL1        0.0767
      9 C           1.6061   31.8008    5.5131 C.ar    1  UNL1        0.0168
     10 C           1.6570   32.5253    4.3162 C.ar    1  UNL1        0.0013
     11 C           2.4564   33.6602    4.2166 C.ar    1  UNL1        0.0001
     12 C           3.2059   34.0725    5.3136 C.ar    1  UNL1        0.0013
     13 C           3.1536   33.3475    6.5083 C.ar    1  UNL1        0.0168
@<TRIPOS>BOND
     1     1     2    1
     2     2     3    2
     3     2     7    1
     4     3     4    1
     5     4     8    1
     6     4     5   am
     7     8     9   ar
     8     8    13   ar
     9     9    10   ar
    10    10    11   ar
    11    11    12   ar
    12    12    13   ar
    13     5     6    2
    14     5     7    1
#	Name:			CHEMBL291338
#	Creating user name:	trannguyen
#	Creation time:		Tue Feb  8 18:26:14 2022


#	Modifying user name:	trannguyen
#	Modification time:	Tue Feb  8 18:26:14 2022

@<TRIPOS>MOLECULE
CHEMBL291338
 22 23 0 0 0
SMALL
GASTEIGER

@<TRIPOS>ATOM
      1 O           5.6563   30.0255   10.8158 O.2     1  UNL1       -0.2697
      2 C           5.3134   30.5538    9.7680 C.2     1  UNL1        0.2525
      3 N           6.1361   31.2529    8.9002 N.am    1  UNL1       -0.2803
      4 H           5.6666   31.7363    8.1380 H       1  UNL1        0.1552
      5 C           3.8828   30.4178    9.3526 C.ar    1  UNL1        0.0890
      6 C           3.4761   31.1485    8.2222 C.ar    1  UNL1        0.0190
      7 C           2.1426   31.1390    7.8170 C.ar    1  UNL1        0.0589
      8 CL          1.6574   32.0688    6.4535 Cl      1  UNL1       -0.0822
      9 C           1.1953   30.3979    8.5159 C.ar    1  UNL1        0.0258
     10 C           1.5987   29.6415    9.6134 C.ar    1  UNL1        0.0922
     11 CL          0.4219   28.7155   10.4717 Cl      1  UNL1       -0.0791
     12 C           2.9361   29.6409   10.0332 C.ar    1  UNL1        0.1485
     13 O           3.3124   28.8789   11.1133 O.3     1  UNL1       -0.5045
     14 H           2.5435   28.3248   11.3613 H       1  UNL1        0.2922
     15 C           7.5266   31.4522    9.0225 C.ar    1  UNL1        0.0514
     16 C           8.4666   30.8095    8.2155 C.ar    1  UNL1        0.0156
     17 C           9.8353   31.0202    8.4055 C.ar    1  UNL1        0.0135
     18 C          10.2811   31.8840    9.4045 C.ar    1  UNL1        0.0683
     19 CL         11.9860   32.0763    9.5993 Cl      1  UNL1       -0.0814
     20 C           9.3483   32.5530   10.2024 C.ar    1  UNL1        0.0694
     21 CL          9.8236   33.6403   11.4601 Cl      1  UNL1       -0.0813
     22 C           7.9760   32.3445   10.0039 C.ar    1  UNL1        0.0269
@<TRIPOS>BOND
     1     1     2    2
     2     2     3   am
     3     2     5    1
     4     3    15    1
     5     3     4    1
     6    15    16   ar
     7    15    22   ar
     8    16    17   ar
     9    17    18   ar
    10    18    19    1
    11    18    20   ar
    12    20    21    1
    13    20    22   ar
    14     5     6   ar
    15     5    12   ar
    16     6     7   ar
    17     7     8    1
    18     7     9   ar
    19     9    10   ar
    20    10    11    1
    21    10    12   ar
    22    12    13    1
    23    13    14    1
#	Name:			CHEMBL29292
#	Creating user name:	trannguyen
#	Creation time:		Tue Feb  8 18:26:14 2022


#	Modifying user name:	trannguyen
#	Modification time:	Tue Feb  8 18:26:14 2022

@<TRIPOS>MOLECULE
CHEMBL29292
 27 27 0 0 0
SMALL
GASTEIGER

@<TRIPOS>ATOM
      1 C           2.4023   33.1277    5.1302 C.3     0  UNK0        0.2012
      2 O           2.9318   34.3517    5.6808 O.3     0  UNK0       -0.3748
      3 H           3.8424   34.1495    5.9614 H       0  UNK0        0.2110
      4 N           2.4725   32.5744    7.5803 N.am    1  LEU1       -0.2948
      5 C           2.1311   32.1345    6.3061 C.2     0  UNK0        0.2511
      6 O           1.5714   31.0469    6.1675 O.2     0  UNK0       -0.2724
      7 H           2.6897   33.5664    7.6667 H       1  LEU1        0.1499
      8 CA          2.1624   31.7964    8.8184 C.3     1  LEU1        0.1713
      9 C           1.5881   32.7589    9.8768 C.2     1  LEU1        0.3318
     10 O           2.2289   33.3394   10.7601 O.2     1  LEU1       -0.2485
     11 OXT         0.2417   32.9139    9.7582 O.3     1  LEU1       -0.4791
     12 HXT        -0.1334   32.3937    9.0098 H       1  LEU1        0.2951
     13 CB          3.3389   30.8843    9.2917 C.3     1  LEU1        0.0311
     14 CD1         1.6232   29.0103    9.7544 C.3     1  LEU1        0.0001
     15 CG          2.9579   29.6401   10.1572 C.3     1  LEU1        0.0022
     16 CD2         4.0206   28.5257   10.1091 C.3     1  LEU1        0.0001
     17 C           3.3949   32.6098    4.0345 C.3     0  UNK0        0.0915
     18 N           2.8704   31.3396    3.4653 N.3     0  UNK0       -0.3196
     19 H           3.3392   31.1445    2.5780 H       0  UNK0        0.1189
     20 H           1.8739   31.4344    3.2673 H       0  UNK0        0.1189
     21 C           4.8446   32.3962    4.5297 C.3     0  UNK0        0.0448
     22 C           5.8775   32.3382    3.4181 C.ar    0  UNK0       -0.0208
     23 C           6.1433   33.4697    2.6334 C.ar    0  UNK0       -0.0042
     24 C           7.0832   33.4152    1.6030 C.ar    0  UNK0       -0.0003
     25 C           7.7673   32.2292    1.3451 C.ar    0  UNK0       -0.0000
     26 C           7.5185   31.0998    2.1234 C.ar    0  UNK0       -0.0003
     27 C           6.5812   31.1538    3.1577 C.ar    0  UNK0       -0.0042
@<TRIPOS>BOND
     1    14    15    1
     2    15    16    1
     3    15    13    1
     4     8     4    1
     5     8     9    1
     6     8    13    1
     7     4     5   am
     8     4     7    1
     9     5     6    2
    10     5     1    1
    11     1     2    1
    12     2     3    1
    13    17    18    1
    14    17    21    1
    15    17     1    1
    16    18    19    1
    17    18    20    1
    18    21    22    1
    19    22    23   ar
    20    22    27   ar
    21    23    24   ar
    22    24    25   ar
    23    25    26   ar
    24    26    27   ar
    25     9    10    2
    26     9    11    1
    27    11    12    1
#	Name:			CHEMBL293492
#	Creating user name:	trannguyen
#	Creation time:		Tue Feb  8 18:26:14 2022


#	Modifying user name:	trannguyen
#	Modification time:	Tue Feb  8 18:26:14 2022

@<TRIPOS>MOLECULE
CHEMBL293492
 10 10 0 0 0
SMALL
GASTEIGER

@<TRIPOS>ATOM
      1 C           2.5680   30.7346    8.8800 C.ar    1  UNL1        0.0001
      2 C           1.6687   30.7493    7.8048 C.ar    1  UNL1        0.0000
      3 C           1.9778   31.4316    6.6250 C.ar    1  UNL1        0.0000
      4 C           3.1946   32.0979    6.5029 C.ar    1  UNL1        0.0000
      5 C           4.1057   32.0754    7.5560 C.ar    1  UNL1        0.0000
      6 C           3.7973   31.3922    8.7356 C.ar    1  UNL1        0.0000
      7 C           2.1528   28.6466   10.1562 C.2     1  UNL1        0.0454
      8 C           2.2095   29.9843   10.0936 C.2     1  UNL1        0.0034
      9 O           2.1770   26.8494   11.6801 O.2     1  UNL1       -0.2831
     10 C           1.7900   27.9817   11.4223 C.2     1  UNL1        0.2343
@<TRIPOS>BOND
     1     9    10    2
     2    10     7    1
     3     7     8    2
     4     8     1    1
     5     1     2   ar
     6     1     6   ar
     7     2     3   ar
     8     3     4   ar
     9     4     5   ar
    10     5     6   ar
#	Name:			CHEMBL294199
#	Creating user name:	trannguyen
#	Creation time:		Tue Feb  8 18:26:14 2022


#	Modifying user name:	trannguyen
#	Modification time:	Tue Feb  8 18:26:14 2022

@<TRIPOS>MOLECULE
CHEMBL294199
 24 24 0 0 0
SMALL
GASTEIGER

@<TRIPOS>ATOM
      1 N           1.4056   29.5516    9.2110 N.am    1  UNL1       -0.3004
      2 C           1.9692   29.4342   10.4611 C.2     1  UNL1        0.2227
      3 O           2.0654   30.3722   11.2543 O.2     1  UNL1       -0.2751
      4 H           1.2236   28.7143    8.6721 H       1  UNL1        0.1497
      5 C           0.8822   30.8055    8.7162 C.3     1  UNL1        0.1164
      6 C           3.0303   31.8320    5.7261 C.ar    1  UNL1        0.1719
      7 C           2.1228   31.1514    6.5516 C.ar    1  UNL1        0.0374
      8 C           1.8981   31.5429    7.8812 C.ar    1  UNL1        0.0006
      9 C           2.6362   32.6136    8.3985 C.ar    1  UNL1        0.0007
     10 C           3.5421   33.3022    7.5870 C.ar    1  UNL1        0.0395
     11 C           3.7259   32.9247    6.2537 C.ar    1  UNL1        0.1677
     12 O           4.6039   33.6503    5.4964 O.3     1  UNL1       -0.5029
     13 H           4.8294   34.4704    5.9632 H       1  UNL1        0.2923
     14 C           2.3549   31.9516    3.4406 C.3     1  UNL1        0.2526
     15 O           3.1072   31.3114    4.4616 O.3     1  UNL1       -0.4684
     16 C           2.4655   28.0362   10.7621 C.3     1  UNL1        0.0851
     17 C           3.7692   27.6810   10.0422 C.3     1  UNL1        0.0099
     18 C           4.9146   28.6360   10.4027 C.3     1  UNL1        0.0052
     19 C           5.1404   29.7815    9.4086 C.3     1  UNL1        0.0257
     20 C           5.7651   30.9988   10.0273 C.2     1  UNL1       -0.0307
     21 C           6.4395   31.9340    9.3388 C.2     1  UNL1       -0.0310
     22 C           7.0818   33.1352    9.9916 C.3     1  UNL1        0.0217
     23 C           6.1100   34.3153   10.0233 C.3     1  UNL1        0.0047
     24 C           7.5634   32.8043   11.4037 C.3     1  UNL1        0.0047
@<TRIPOS>BOND
     1    14    15    1
     2    15     6    1
     3     6     7   ar
     4     6    11   ar
     5     7     8   ar
     6     8     5    1
     7     8     9   ar
     8     5     1    1
     9     1     2   am
    10     1     4    1
    11     2     3    2
    12     2    16    1
    13    16    17    1
    14    17    18    1
    15    18    19    1
    16    19    20    1
    17    20    21    2
    18    21    22    1
    19    22    23    1
    20    22    24    1
    21     9    10   ar
    22    10    11   ar
    23    11    12    1
    24    12    13    1
#	Name:			CHEMBL295416
#	Creating user name:	trannguyen
#	Creation time:		Tue Feb  8 18:26:14 2022


#	Modifying user name:	trannguyen
#	Modification time:	Tue Feb  8 18:26:14 2022

@<TRIPOS>MOLECULE
CHEMBL295416
 23 24 0 0 0
SMALL
GASTEIGER

@<TRIPOS>ATOM
      1 C           4.1284   32.0516    6.4179 C.ar    1  UNL1        0.1367
      2 C           3.1034   31.8754    5.5181 C.ar    1  UNL1        0.0652
      3 C           3.4462   31.9507    4.1933 C.ar    1  UNL1        0.1433
      4 CL          2.2472   31.8045    2.9739 Cl      1  UNL1       -0.0612
      5 N           4.6807   32.1724    3.7300 N.ar    1  UNL1       -0.2095
      6 C           5.6023   32.3593    4.6733 C.ar    1  UNL1        0.1924
      7 N           5.3836   32.3126    6.0005 N.ar    1  UNL1       -0.2061
      8 N           3.8976   32.0500    7.8031 N.pl3   1  UNL1       -0.2981
      9 H           4.1380   32.9523    8.2016 H       1  UNL1        0.1536
     10 C           1.3160   28.7491   10.5801 C.3     1  UNL1        0.0307
     11 C           2.6043   29.3651   10.0960 C.ar    1  UNL1       -0.0246
     12 C           3.8057   28.8937   10.6389 C.ar    1  UNL1       -0.0045
     13 C           5.0154   29.4636   10.2672 C.ar    1  UNL1        0.0009
     14 C           5.0397   30.5135    9.3481 C.ar    1  UNL1        0.0143
     15 C           3.8621   31.0062    8.7603 C.ar    1  UNL1        0.0450
     16 C           2.6276   30.4068    9.1282 C.ar    1  UNL1       -0.0123
     17 C           1.3199   30.8717    8.5313 C.3     1  UNL1        0.0320
     18 S           7.2284   32.7950    4.1165 S.3     1  UNL1       -0.0637
     19 C           6.9728   32.5230    2.3366 C.3     1  UNL1        0.1741
     20 C           7.7818   31.3564    1.7980 C.2     1  UNL1        0.3254
     21 O           8.9535   31.4618    1.4738 O.2     1  UNL1       -0.2493
     22 O           7.1247   30.1760    1.7013 O.3     1  UNL1       -0.4796
     23 H           6.1930   30.2562    1.9946 H       1  UNL1        0.2951
@<TRIPOS>BOND
     1    10    11    1
     2    11    12   ar
     3    11    16   ar
     4    12    13   ar
     5    13    14   ar
     6    14    15   ar
     7    15     8    1
     8    15    16   ar
     9     8     1    1
    10     8     9    1
    11     1     2   ar
    12     1     7   ar
    13     2     3   ar
    14     3     4    1
    15     3     5   ar
    16     5     6   ar
    17     6    18    1
    18     6     7   ar
    19    18    19    1
    20    19    20    1
    21    20    21    2
    22    20    22    1
    23    22    23    1
    24    16    17    1
#	Name:			CHEMBL296419
#	Creating user name:	trannguyen
#	Creation time:		Tue Feb  8 18:26:14 2022


#	Modifying user name:	trannguyen
#	Modification time:	Tue Feb  8 18:26:14 2022

@<TRIPOS>MOLECULE
CHEMBL296419
 35 39 0 0 0
SMALL
GASTEIGER

@<TRIPOS>ATOM
      1 N           6.3700   33.2754    7.3326 N.pl3   1  UNL1       -0.3058
      2 H           5.8759   34.1388    7.1154 H       1  UNL1        0.1495
      3 C           5.7318   32.3422    8.0996 C.ar    1  UNL1        0.1981
      4 N           6.2909   31.4529    8.8967 N.ar    1  UNL1       -0.2138
      5 C           5.2730   30.7003    9.4020 C.ar    1  UNL1        0.0999
      6 C           5.3211   29.6085   10.2908 C.ar    1  UNL1        0.0207
      7 C           4.1256   28.9904   10.6634 C.ar    1  UNL1        0.0016
      8 C           2.8996   29.4364   10.1588 C.ar    1  UNL1        0.0016
      9 C           2.8348   30.5196    9.2735 C.ar    1  UNL1        0.0188
     10 C           4.0382   31.1366    8.9302 C.ar    1  UNL1        0.0801
     11 N           4.3578   32.2175    8.1317 N.ar    1  UNL1       -0.2956
     12 C           3.4049   33.1554    7.5587 C.3     1  UNL1        0.1354
     13 C           2.9692   32.7807    6.1590 C.ar    1  UNL1        0.0006
     14 C           2.6424   33.8046    5.2510 C.ar    1  UNL1       -0.0001
     15 C           2.2951   33.4993    3.9324 C.ar    1  UNL1        0.0294
     16 C           2.2954   32.1761    3.5092 C.ar    1  UNL1        0.1401
     17 F           1.9724   31.8844    2.2431 F       1  UNL1       -0.2042
     18 C           2.6253   31.1502    4.3811 C.ar    1  UNL1        0.0294
     19 C           2.9553   31.4505    5.7005 C.ar    1  UNL1       -0.0001
     20 N           7.0174   33.8761    3.5437 N.3     1  UNL1       -0.2723
     21 C           5.9742   32.9944    4.0832 C.3     1  UNL1        0.0738
     22 C           6.4788   32.0607    5.1814 C.3     1  UNL1        0.0369
     23 C           7.2627   32.7890    6.2802 C.3     1  UNL1        0.0745
     24 C           8.1294   33.9535    5.7905 C.3     1  UNL1        0.0369
     25 C           7.5041   34.7347    4.6354 C.3     1  UNL1        0.0738
     26 C           8.1269   33.1578    2.8737 C.3     1  UNL1        0.0768
     27 C           7.6672   32.1691    1.7881 C.3     1  UNL1        0.0437
     28 C           7.5052   33.9853   -2.1339 C.ar    1  UNL1        0.1387
     29 C           7.7898   32.6263   -1.9973 C.ar    1  UNL1        0.0366
     30 C           7.8409   32.0360   -0.7321 C.ar    1  UNL1       -0.0011
     31 C           7.6188   32.8050    0.4179 C.ar    1  UNL1       -0.0206
     32 C           7.3644   34.1736    0.2770 C.ar    1  UNL1       -0.0011
     33 C           7.3054   34.7605   -0.9918 C.ar    1  UNL1        0.0366
     34 C           8.0900   35.7384   -3.6060 C.3     1  UNL1        0.2525
     35 O           7.4996   34.4570   -3.4180 O.3     1  UNL1       -0.4714
@<TRIPOS>BOND
     1    34    35    1
     2    35    28    1
     3    28    29   ar
     4    28    33   ar
     5    29    30   ar
     6    30    31   ar
     7    31    27    1
     8    31    32   ar
     9    27    26    1
    10    26    20    1
    11    20    21    1
    12    20    25    1
    13    21    22    1
    14    22    23    1
    15    23     1    1
    16    23    24    1
    17     1     3    1
    18     1     2    1
    19     3     4   ar
    20     3    11   ar
    21     4     5   ar
    22     5     6   ar
    23     5    10   ar
    24     6     7   ar
    25     7     8   ar
    26     8     9   ar
    27     9    10   ar
    28    10    11   ar
    29    11    12    1
    30    12    13    1
    31    13    14   ar
    32    13    19   ar
    33    14    15   ar
    34    15    16   ar
    35    16    17    1
    36    16    18   ar
    37    18    19   ar
    38    24    25    1
    39    32    33   ar
#	Name:			CHEMBL29
#	Creating user name:	trannguyen
#	Creation time:		Tue Feb  8 18:26:14 2022


#	Modifying user name:	trannguyen
#	Modification time:	Tue Feb  8 18:26:14 2022

@<TRIPOS>MOLECULE
CHEMBL29
 25 27 0 0 0
SMALL
GASTEIGER

@<TRIPOS>ATOM
      1 C           8.7609   32.8818    4.8176 C.3     1  UNL1        0.0131
      2 C           8.2571   33.6832    3.6020 C.3     1  UNL1        0.0679
      3 C           9.3366   34.7106    3.2403 C.3     1  UNL1        0.0131
      4 S           6.7333   34.5984    4.1438 S.3     1  UNL1       -0.1185
      5 C           5.5614   33.5352    3.2192 C.3     1  UNL1        0.1509
      6 CA          4.8008   32.4342    4.0033 C.3     1  UNL1        0.1777
      7 C           5.9735   31.5340    3.5529 C.2     1  UNL1        0.2471
      8 O           6.4998   30.5023    3.9130 O.2     1  UNL1       -0.2730
      9 N           6.3870   32.4606    2.6293 N.am    1  UNL1       -0.2597
     10 CA          7.8211   32.7363    2.4549 C.3     1  UNL1        0.1843
     11 N           4.6359   32.6517    5.4602 N.am    1  UNL1       -0.2961
     12 C           3.5897   32.1026    6.1668 C.2     1  UNL1        0.2273
     13 O           2.8012   31.3100    5.6537 O.2     1  UNL1       -0.2747
     14 H           5.1965   33.3649    5.9162 H       1  UNL1        0.1499
     15 C           3.5081   32.4632    7.6408 C.3     1  UNL1        0.1113
     16 C           3.9995   31.3963    8.5902 C.ar    1  UNL1       -0.0131
     17 C           5.3472   31.3663    8.9725 C.ar    1  UNL1       -0.0038
     18 C           5.8069   30.3930    9.8587 C.ar    1  UNL1       -0.0003
     19 C           4.9300   29.4302   10.3545 C.ar    1  UNL1       -0.0000
     20 C           3.5939   29.4329    9.9577 C.ar    1  UNL1       -0.0003
     21 C           3.1278   30.4120    9.0801 C.ar    1  UNL1       -0.0038
     22 C           8.0440   33.2541    1.0232 C.2     1  UNL1        0.3329
     23 O           7.3907   34.1395    0.4920 O.2     1  UNL1       -0.2484
     24 OXT         9.1068   32.6876    0.3962 O.3     1  UNL1       -0.4790
     25 HXT         9.5808   32.0863    1.0068 H       1  UNL1        0.2951
@<TRIPOS>BOND
     1     1     2    1
     2     2     3    1
     3     2     4    1
     4     2    10    1
     5     4     5    1
     6     5     6    1
     7     5     9    1
     8     6     7    1
     9     6    11    1
    10    11    12   am
    11    11    14    1
    12    12    13    2
    13    12    15    1
    14    15    16    1
    15    16    17   ar
    16    16    21   ar
    17    17    18   ar
    18    18    19   ar
    19    19    20   ar
    20    20    21   ar
    21     7     8    2
    22     7     9   am
    23     9    10    1
    24    10    22    1
    25    22    23    2
    26    22    24    1
    27    24    25    1
#	Name:			CHEMBL2
#	Creating user name:	trannguyen
#	Creation time:		Tue Feb  8 18:26:14 2022


#	Modifying user name:	trannguyen
#	Modification time:	Tue Feb  8 18:26:14 2022

@<TRIPOS>MOLECULE
CHEMBL2
 30 33 0 0 0
SMALL
GASTEIGER

@<TRIPOS>ATOM
      1 C           6.7327   33.1563   -6.9502 C.ar    1  UNL1        0.1739
      2 C           7.2222   32.9647   -5.6548 C.ar    1  UNL1        0.0593
      3 C           7.6646   34.0284   -4.8790 C.ar    1  UNL1        0.0901
      4 N           8.1191   33.7804   -3.6521 N.ar    1  UNL1       -0.2134
      5 C           8.5555   34.7985   -2.8958 C.ar    1  UNL1        0.2214
      6 N           8.5526   36.0677   -3.3228 N.ar    1  UNL1       -0.1991
      7 C           8.1072   36.3108   -4.5604 C.ar    1  UNL1        0.1298
      8 N           8.1317   37.6580   -4.9483 N.pl3   1  UNL1       -0.3425
      9 C           7.6264   35.3131   -5.4082 C.ar    1  UNL1        0.0522
     10 C           7.1292   35.5243   -6.7126 C.ar    1  UNL1        0.0443
     11 C           6.6874   34.4513   -7.4859 C.ar    1  UNL1        0.1726
     12 H           8.5548   38.1753   -4.1808 H       1  UNL1        0.1437
     13 H           8.6637   37.7799   -5.8034 H       1  UNL1        0.1437
     14 N           9.0595   34.5080   -1.6296 N.pl3   1  UNL1       -0.2747
     15 C           9.1638   35.6596   -0.7085 C.3     1  UNL1        0.1151
     16 C           7.8157   35.9225    0.0023 C.3     1  UNL1        0.1153
     17 N           7.2939   34.6974    0.6267 N.am    1  UNL1       -0.2701
     18 C           7.4703   34.5160    2.0009 C.2     1  UNL1        0.2839
     19 O           8.0910   35.3593    2.6680 O.2     1  UNL1       -0.2666
     20 C           7.1490   33.5837   -0.3293 C.3     1  UNL1        0.1153
     21 C           8.5034   33.2876   -1.0126 C.3     1  UNL1        0.1151
     22 C           6.9169   33.3343    2.6400 C.ar    1  UNL1        0.1987
     23 C           7.5378   32.1790    3.0853 C.ar    1  UNL1        0.0455
     24 C           6.5460   31.3903    3.7157 C.ar    1  UNL1        0.0440
     25 C           5.3798   32.1116    3.6340 C.ar    1  UNL1        0.1798
     26 O           5.5912   33.2890    2.9920 O.2     1  UNL1       -0.4458
     27 C           7.3258   31.3195   -8.3482 C.3     1  UNL1        0.2526
     28 O           6.3165   32.1334   -7.7611 O.3     1  UNL1       -0.4683
     29 O           6.2451   34.5860   -8.7765 O.3     1  UNL1       -0.4684
     30 C           6.4288   35.8708   -9.3609 C.3     1  UNL1        0.2526
@<TRIPOS>BOND
     1    27    28    1
     2    28     1    1
     3     1     2   ar
     4     1    11   ar
     5     2     3   ar
     6     3     4   ar
     7     3     9   ar
     8     4     5   ar
     9     5    14    1
    10     5     6   ar
    11    14    15    1
    12    14    21    1
    13    15    16    1
    14    16    17    1
    15    17    18   am
    16    17    20    1
    17    18    19    2
    18    18    22    1
    19    22    23   ar
    20    22    26   ar
    21    23    24   ar
    22    24    25   ar
    23    25    26   ar
    24    20    21    1
    25     6     7   ar
    26     7     8    1
    27     7     9   ar
    28     8    12    1
    29     8    13    1
    30     9    10   ar
    31    10    11   ar
    32    11    29    1
    33    29    30    1
#	Name:			CHEMBL30008
#	Creating user name:	trannguyen
#	Creation time:		Tue Feb  8 18:26:14 2022


#	Modifying user name:	trannguyen
#	Modification time:	Tue Feb  8 18:26:14 2022

@<TRIPOS>MOLECULE
CHEMBL30008
 30 33 0 0 0
SMALL
GASTEIGER

@<TRIPOS>ATOM
      1 C           4.8475   31.8020    8.4501 C.3     1  UNL1        0.1031
      2 F           2.4268   32.5349    2.8034 F       1  UNL1       -0.2042
      3 C           3.1838   32.8494    3.8763 C.ar    1  UNL1        0.1401
      4 C           4.4169   32.3703    3.9937 C.ar    1  UNL1        0.0294
      5 C           4.8044   32.1864    5.3588 C.ar    1  UNL1       -0.0003
      6 C           4.3908   32.6113    6.7529 C.ar    1  UNL1       -0.0035
      7 C           3.2410   33.3513    6.4468 C.ar    1  UNL1       -0.0003
      8 C           2.6232   33.4137    5.0527 C.ar    1  UNL1        0.0294
      9 C           4.1446   30.4052    9.4698 C.ar    1  UNL1       -0.0035
     10 C           4.8069   29.1594    9.8144 C.ar    1  UNL1       -0.0003
     11 C           4.1179   27.9711   10.2142 C.ar    1  UNL1        0.0294
     12 C           2.7702   28.1205   10.5290 C.ar    1  UNL1        0.1401
     13 F           2.1570   27.0364   10.9557 F       1  UNL1       -0.2042
     14 C           2.1271   29.3410   10.4370 C.ar    1  UNL1        0.0294
     15 C           2.8092   30.4771    9.8815 C.ar    1  UNL1       -0.0003
     16 N           6.2755   31.7713    8.8671 N.3     1  UNL1       -0.2644
     17 C           6.5700   32.8773    9.7445 C.3     1  UNL1        0.0901
     18 C           8.0044   33.3564    9.6903 C.3     1  UNL1        0.0899
     19 N           8.6111   33.2844    8.3474 N.3     1  UNL1       -0.2665
     20 C           8.7093   31.9015    7.9450 C.3     1  UNL1        0.0899
     21 C           7.3668   31.1540    8.0414 C.3     1  UNL1        0.0901
     22 C           7.9639   34.0719    7.3016 C.3     1  UNL1        0.0989
     23 C           8.1610   33.9350    5.7242 C.2     1  UNL1       -0.0088
     24 C           8.2948   33.0533    4.5858 C.2     1  UNL1       -0.0032
     25 C           7.8480   32.9062    2.7967 C.ar    1  UNL1       -0.0003
     26 C           7.9133   31.7956    2.1232 C.ar    1  UNL1       -0.0000
     27 C           7.8916   31.8677    0.6632 C.ar    1  UNL1       -0.0000
     28 C           7.5177   32.9931   -0.1441 C.ar    1  UNL1       -0.0000
     29 C           7.2105   34.1305    0.4679 C.ar    1  UNL1       -0.0000
     30 C           7.5510   34.0891    1.8244 C.ar    1  UNL1       -0.0000
@<TRIPOS>BOND
     1     2     3    1
     2     3     4   ar
     3     3     8   ar
     4     4     5   ar
     5     5     6   ar
     6     6     1    1
     7     6     7   ar
     8     1     9    1
     9     1    16    1
    10     9    10   ar
    11     9    15   ar
    12    10    11   ar
    13    11    12   ar
    14    12    13    1
    15    12    14   ar
    16    14    15   ar
    17    16    17    1
    18    16    21    1
    19    17    18    1
    20    18    19    1
    21    19    22    1
    22    19    20    1
    23    22    23    1
    24    23    24    2
    25    24    25    1
    26    25    26   ar
    27    25    30   ar
    28    26    27   ar
    29    27    28   ar
    30    28    29   ar
    31    29    30   ar
    32    20    21    1
    33     7     8   ar
#	Name:			CHEMBL302795
#	Creating user name:	trannguyen
#	Creation time:		Tue Feb  8 18:26:14 2022


#	Modifying user name:	trannguyen
#	Modification time:	Tue Feb  8 18:26:14 2022

@<TRIPOS>MOLECULE
CHEMBL302795
 24 26 0 0 0
SMALL
GASTEIGER

@<TRIPOS>ATOM
      1 C           1.8993   31.3798    6.8428 C.3     1  UNL1        0.1394
      2 N           2.3630   32.0120    8.1103 N.pl3   1  UNL1       -0.1814
      3 C           3.7933   31.8188    8.3724 C.2     1  UNL1        0.1563
      4 C           4.2501   30.7499    9.0691 C.2     1  UNL1        0.1601
      5 O           5.5895   30.4754    9.2717 O.2     1  UNL1       -0.5036
      6 C           3.3457   29.8487    9.7168 C.ar    1  UNL1        0.0834
      7 S           3.7578   28.2852   10.2920 S.2     1  UNL1       -0.0820
      8 C           2.1695   27.9979   10.8794 C.ar    1  UNL1        0.0370
      9 C           1.3271   29.0635   10.6515 C.ar    1  UNL1        0.0278
     10 C           2.0189   30.1040    9.9871 C.ar    1  UNL1        0.1348
     11 S           1.3905   31.6124    9.4684 S.O2    1  UNL1        0.0774
     12 O           1.7005   32.5245   10.5439 O.2     1  UNL1       -0.1497
     13 O           0.0390   31.3353    9.0353 O.2     1  UNL1       -0.1497
     14 H           6.1263   31.1364    8.7771 H       1  UNL1        0.2923
     15 C           4.7421   32.8200    7.7712 C.2     1  UNL1        0.2685
     16 O           4.8416   33.9362    8.2676 O.2     1  UNL1       -0.2683
     17 N           5.3766   32.3002    6.6680 N.am    1  UNL1       -0.2647
     18 H           5.1160   31.3568    6.4098 H       1  UNL1        0.1566
     19 C           6.2945   32.9582    5.8480 C.ar    1  UNL1        0.1344
     20 C           7.6348   32.6080    5.9964 C.ar    1  UNL1        0.0345
     21 C           8.5936   33.2371    5.2059 C.ar    1  UNL1        0.0045
     22 C           8.1887   34.1925    4.2852 C.ar    1  UNL1        0.0208
     23 C           6.8372   34.4780    4.2001 C.ar    1  UNL1        0.1003
     24 N           5.8918   33.8853    4.9633 N.ar    1  UNL1       -0.2290
@<TRIPOS>BOND
     1     1     2    1
     2     2     3    1
     3     2    11    1
     4     3    15    1
     5     3     4    2
     6    15    16    2
     7    15    17   am
     8    17    19    1
     9    17    18    1
    10    19    20   ar
    11    19    24   ar
    12    20    21   ar
    13    21    22   ar
    14    22    23   ar
    15    23    24   ar
    16     4     5    1
    17     4     6    1
    18     5    14    1
    19     6     7   ar
    20     6    10   ar
    21     7     8   ar
    22     8     9   ar
    23     9    10   ar
    24    10    11    1
    25    11    12    2
    26    11    13    2
#	Name:			CHEMBL30327
#	Creating user name:	trannguyen
#	Creation time:		Tue Feb  8 18:26:14 2022


#	Modifying user name:	trannguyen
#	Modification time:	Tue Feb  8 18:26:14 2022

@<TRIPOS>MOLECULE
CHEMBL30327
 18 20 0 0 0
SMALL
GASTEIGER

@<TRIPOS>ATOM
      1 CL          1.8703   27.6261   11.3127 Cl      1  UNL1       -0.0813
      2 C           2.5887   28.9039   10.3985 C.ar    1  UNL1        0.0714
      3 C           3.9763   29.0529   10.4729 C.ar    1  UNL1        0.0529
      4 C           4.6010   30.0693    9.7532 C.ar    1  UNL1        0.1806
      5 C           3.8498   30.9362    8.9609 C.ar    1  UNL1        0.1806
      6 C           2.4657   30.7933    8.8821 C.ar    1  UNL1        0.0529
      7 C           1.8321   29.7754    9.6019 C.ar    1  UNL1        0.0714
      8 CL          0.1146   29.6464    9.4660 Cl      1  UNL1       -0.0813
      9 O           4.4267   31.9495    8.2371 O.3     1  UNL1       -0.4473
     10 C           5.7909   32.0534    8.3451 C.ar    1  UNL1        0.1806
     11 C           6.4198   33.0690    7.6273 C.ar    1  UNL1        0.0529
     12 C           7.8085   33.2151    7.7056 C.ar    1  UNL1        0.0714
     13 CL          8.5334   34.4915    6.7945 Cl      1  UNL1       -0.0813
     14 C           8.5620   32.3420    8.5033 C.ar    1  UNL1        0.0714
     15 CL         10.2793   32.4661    8.6447 Cl      1  UNL1       -0.0813
     16 C           7.9246   31.3255    9.2203 C.ar    1  UNL1        0.0529
     17 C           6.5408   31.1859    9.1378 C.ar    1  UNL1        0.1806
     18 O           5.9643   30.1729    9.8607 O.3     1  UNL1       -0.4473
@<TRIPOS>BOND
     1     1     2    1
     2     2     3   ar
     3     2     7   ar
     4     3     4   ar
     5     4     5   ar
     6     4    18    1
     7     5     6   ar
     8     5     9    1
     9     6     7   ar
    10     7     8    1
    11     9    10    1
    12    10    11   ar
    13    10    17   ar
    14    11    12   ar
    15    12    13    1
    16    12    14   ar
    17    14    15    1
    18    14    16   ar
    19    16    17   ar
    20    17    18    1
#	Name:			CHEMBL3039597
#	Creating user name:	trannguyen
#	Creation time:		Tue Feb  8 18:26:14 2022


#	Modifying user name:	trannguyen
#	Modification time:	Tue Feb  8 18:26:14 2022

@<TRIPOS>MOLECULE
CHEMBL3039597
 44 46 0 0 0
SMALL
GASTEIGER

@<TRIPOS>ATOM
      1 C           5.3194   32.0809    4.8513 C.3     1  UNL1        0.1610
      2 C           5.1462   33.4870    4.2586 C.3     1  UNL1        0.0824
      3 N           6.0020   33.8194    3.1512 N.3     1  UNL1       -0.3202
      4 C           3.7671   33.8737    3.9369 C.3     1  UNL1        0.0361
      5 C           2.9334   33.4049    5.0903 C.3     1  UNL1        0.0824
      6 N           1.8263   34.2500    4.6625 N.3     1  UNL1       -0.3202
      7 C           2.6612   31.8873    5.1441 C.3     1  UNL1        0.1610
      8 C           4.0288   31.1799    4.8064 C.3     1  UNL1        0.1673
      9 O           3.9311   30.6691    3.4616 O.3     1  UNL1       -0.3795
     10 H           6.0088   34.8343    3.0874 H       1  UNL1        0.1189
     11 H           6.9455   33.5268    3.3952 H       1  UNL1        0.1189
     12 H           1.6695   34.8602    5.4824 H       1  UNL1        0.1189
     13 H           0.9774   33.6915    4.8684 H       1  UNL1        0.1189
     14 H           3.2659   31.1891    2.9886 H       1  UNL1        0.2105
     15 O           5.7491   32.2832    6.2135 O.3     1  UNL1       -0.3281
     16 C           7.5434   33.1646    8.6843 C.3     1  UNL1        0.1321
     17 C           7.7384   31.6631    8.3689 C.3     1  UNL1        0.0326
     18 C           8.3535   31.4269    6.9903 C.3     1  UNL1        0.0232
     19 C           8.1780   32.6749    6.1307 C.3     1  UNL1        0.1081
     20 N           8.5245   32.4408    4.7603 N.3     1  UNL1       -0.3182
     21 C           6.7946   33.2851    6.3425 C.3     1  UNL1        0.2498
     22 O           6.8660   33.8979    7.6401 O.3     1  UNL1       -0.3307
     23 H           8.8884   33.3188    4.3902 H       1  UNL1        0.1190
     24 H           9.3135   31.7977    4.7363 H       1  UNL1        0.1190
     25 C           8.8771   33.9084    9.0356 C.3     1  UNL1        0.0817
     26 C           8.6921   35.4067    9.3383 C.3     1  UNL1        0.0197
     27 C           9.5515   33.7040   11.3991 C.3     1  UNL1        0.0859
     28 N           9.7137   33.2188   10.0394 N.3     1  UNL1       -0.2954
     29 H           9.4949   32.2240    9.9910 H       1  UNL1        0.1233
     30 O           2.1020   31.3632    6.3963 O.3     1  UNL1       -0.3272
     31 C           1.8060   32.3360    7.4352 C.3     1  UNL1        0.2646
     32 O           0.4761   32.0046    7.9912 O.3     1  UNL1       -0.3261
     33 C           0.5254   31.5687    9.3740 C.3     1  UNL1        0.1729
     34 C           1.6619   30.5676    9.7291 C.3     1  UNL1        0.1312
     35 C           1.2691   29.1259    9.4292 C.3     1  UNL1        0.0334
     36 O           1.9189   30.5890   11.1419 O.3     1  UNL1       -0.3829
     37 C           2.9846   31.0046    9.0911 C.3     1  UNL1        0.1136
     38 C           2.7393   32.4123    8.6291 C.3     1  UNL1        0.1836
     39 O           4.0131   33.0163    8.4242 O.3     1  UNL1       -0.3783
     40 H           2.8921   30.4550   11.1308 H       1  UNL1        0.2104
     41 H           4.2895   33.4710    9.1143 H       1  UNL1        0.2106
     42 N           4.2289   30.9177    9.8620 N.3     1  UNL1       -0.2933
     43 C           4.9726   29.6488    9.8997 C.3     1  UNL1        0.0860
     44 H           4.8322   31.7120    9.7107 H       1  UNL1        0.1234
@<TRIPOS>BOND
     1    27    28    1
     2    28    25    1
     3    28    29    1
     4    25    26    1
     5    16    17    1
     6    16    22    1
     7    16    25    1
     8    17    18    1
     9    18    19    1
    10    19    21    1
    11    19    20    1
    12    20    23    1
    13    20    24    1
    14    21    22    1
    15    21    15    1
    16     1     2    1
    17     1     8    1
    18     1    15    1
    19     2     3    1
    20     2     4    1
    21     3    10    1
    22     3    11    1
    23     4     5    1
    24     5     7    1
    25     5     6    1
    26     6    12    1
    27     6    13    1
    28     7    30    1
    29     7     8    1
    30    30    31    1
    31    31    32    1
    32    31    38    1
    33    32    33    1
    34    33    34    1
    35    34    35    1
    36    34    36    1
    37    34    37    1
    38    36    40    1
    39    37    42    1
    40    37    38    1
    41    42    43    1
    42    42    44    1
    43    38    39    1
    44    39    41    1
    45     8     9    1
    46     9    14    1
#	Name:			CHEMBL305660
#	Creating user name:	trannguyen
#	Creation time:		Tue Feb  8 18:26:14 2022


#	Modifying user name:	trannguyen
#	Modification time:	Tue Feb  8 18:26:14 2022

@<TRIPOS>MOLECULE
CHEMBL305660
 35 38 0 0 0
SMALL
GASTEIGER

@<TRIPOS>ATOM
      1 N           2.0372   32.1560    5.7002 N.3     1  UNL1       -0.2725
      2 C           2.6873   31.0373    5.0055 C.3     1  UNL1        0.0746
      3 C           3.0948   31.3617    3.5719 C.3     1  UNL1        0.0469
      4 C           4.0676   32.5522    3.5772 C.3     1  UNL1        0.1188
      5 C           3.2126   33.7278    4.0484 C.3     1  UNL1        0.0469
      6 C           2.5908   33.4907    5.4319 C.3     1  UNL1        0.0746
      7 C           1.8808   31.8767    7.1549 C.3     1  UNL1        0.0726
      8 C           3.1534   31.3581    7.8693 C.3     1  UNL1        0.0254
      9 C           3.5454   32.0952    9.1572 C.3     1  UNL1        0.0706
     10 C           4.4337   33.3038    8.9617 C.2     1  UNL1        0.1731
     11 O           4.0261   34.2683    8.3871 O.2     1  UNL1       -0.2913
     12 C           8.5737   33.3992   10.3069 C.ar    1  UNL1       -0.0228
     13 C           7.6970   32.3749   10.7103 C.ar    1  UNL1       -0.0042
     14 C           6.3524   32.3200   10.2897 C.ar    1  UNL1        0.0025
     15 C           5.8556   33.2841    9.4182 C.ar    1  UNL1        0.0347
     16 C           6.7376   34.2821    8.9526 C.ar    1  UNL1        0.0025
     17 C           8.0646   34.3351    9.3885 C.ar    1  UNL1       -0.0042
     18 C          10.6443   34.8347   10.4572 C.3     1  UNL1        0.0044
     19 C          10.0136   33.4871   10.8569 C.3     1  UNL1        0.0189
     20 C          10.9047   32.3479   10.3032 C.3     1  UNL1        0.0044
     21 C          10.0744   33.3701   12.3993 C.3     1  UNL1        0.0044
     22 O           5.2229   32.2270    4.3836 O.3     1  UNL1       -0.3498
     23 C           6.4406   32.9890    4.2002 C.3     1  UNL1        0.1596
     24 C           7.4465   32.5719    5.2906 C.ar    1  UNL1        0.0087
     25 C           8.7565   33.0797    5.3545 C.ar    1  UNL1       -0.0016
     26 C           9.6771   32.6059    6.3014 C.ar    1  UNL1       -0.0002
     27 C           9.3081   31.6167    7.2084 C.ar    1  UNL1       -0.0000
     28 C           8.0037   31.1321    7.1979 C.ar    1  UNL1       -0.0002
     29 C           7.0819   31.6081    6.2532 C.ar    1  UNL1       -0.0016
     30 C           6.9969   32.9438    2.7755 C.ar    1  UNL1        0.0087
     31 C           6.9637   34.1047    1.9807 C.ar    1  UNL1       -0.0016
     32 C           7.2841   34.0526    0.6216 C.ar    1  UNL1       -0.0002
     33 C           7.6410   32.8402    0.0385 C.ar    1  UNL1       -0.0000
     34 C           7.7768   31.7036    0.8333 C.ar    1  UNL1       -0.0002
     35 C           7.4971   31.7641    2.2024 C.ar    1  UNL1       -0.0016
@<TRIPOS>BOND
     1    18    19    1
     2    19    20    1
     3    19    21    1
     4    19    12    1
     5    12    13   ar
     6    12    17   ar
     7    13    14   ar
     8    14    15   ar
     9    15    10    1
    10    15    16   ar
    11    10    11    2
    12    10     9    1
    13     9     8    1
    14     8     7    1
    15     7     1    1
    16     1     2    1
    17     1     6    1
    18     2     3    1
    19     3     4    1
    20     4    22    1
    21     4     5    1
    22    22    23    1
    23    23    24    1
    24    23    30    1
    25    24    25   ar
    26    24    29   ar
    27    25    26   ar
    28    26    27   ar
    29    27    28   ar
    30    28    29   ar
    31    30    31   ar
    32    30    35   ar
    33    31    32   ar
    34    32    33   ar
    35    33    34   ar
    36    34    35   ar
    37     5     6    1
    38    16    17   ar
#	Name:			CHEMBL307145
#	Creating user name:	trannguyen
#	Creation time:		Tue Feb  8 18:26:14 2022


#	Modifying user name:	trannguyen
#	Modification time:	Tue Feb  8 18:26:14 2022

@<TRIPOS>MOLECULE
CHEMBL307145
 12 12 0 0 0
SMALL
GASTEIGER

@<TRIPOS>ATOM
      1 O           0.1441   30.3097    9.5003 O.3     1  UNL1       -0.5028
      2 C           1.2779   29.6266    9.8380 C.ar    1  UNL1        0.1706
      3 C           2.5325   30.1069    9.4614 C.ar    1  UNL1        0.0400
      4 C           3.6850   29.3955    9.8158 C.ar    1  UNL1        0.0064
      5 C           3.5869   28.2037   10.5384 C.ar    1  UNL1        0.0400
      6 C           2.3296   27.7331   10.9039 C.ar    1  UNL1        0.1706
      7 O           2.1747   26.5662   11.6026 O.3     1  UNL1       -0.5028
      8 C           1.1786   28.4430   10.5620 C.ar    1  UNL1        0.2019
      9 O          -0.0410   27.9556   10.9481 O.3     1  UNL1       -0.5009
     10 H           0.3869   31.1004    8.9965 H       1  UNL1        0.2923
     11 H           3.0494   26.1519   11.6979 H       1  UNL1        0.2923
     12 H           0.1647   27.1421   11.4460 H       1  UNL1        0.2924
@<TRIPOS>BOND
     1     1     2    1
     2     1    10    1
     3     2     3   ar
     4     2     8   ar
     5     3     4   ar
     6     4     5   ar
     7     5     6   ar
     8     6     7    1
     9     6     8   ar
    10     7    11    1
    11     8     9    1
    12     9    12    1
#	Name:			CHEMBL3084803
#	Creating user name:	trannguyen
#	Creation time:		Tue Feb  8 18:26:14 2022


#	Modifying user name:	trannguyen
#	Modification time:	Tue Feb  8 18:26:14 2022

@<TRIPOS>MOLECULE
CHEMBL3084803
 38 39 0 0 0
SMALL
GASTEIGER

@<TRIPOS>ATOM
      1 C           7.0954   33.5876    8.0625 C.3     1  UNL1        0.1638
      2 C           6.7824   34.3984    9.3245 C.3     1  UNL1        0.1557
      3 O           6.6646   35.7990    9.0293 O.3     1  UNL1       -0.3805
      4 C           5.5134   33.8758   10.0327 C.3     1  UNL1        0.1106
      5 N           5.5180   34.5031   11.3891 N.3     1  UNL1       -0.3182
      6 C           5.3412   32.3168   10.1115 C.3     1  UNL1        0.1627
      7 C           6.1677   31.5033    9.0606 C.3     1  UNL1        0.1594
      8 O           6.3925   30.1316    9.4361 O.3     1  UNL1       -0.3801
      9 C           7.4922   32.1705    8.5748 C.3     1  UNL1        0.1341
     10 H           6.2514   36.1898    9.8251 H       1  UNL1        0.2105
     11 H           4.6848   34.1824   11.8848 H       1  UNL1        0.1190
     12 H           6.3009   34.1096   11.9193 H       1  UNL1        0.1190
     13 H           6.2872   30.0772   10.4078 H       1  UNL1        0.2105
     14 N           8.7043   32.2157    9.4940 N.am    1  UNL1       -0.2733
     15 C           8.3966   32.4835   10.9095 C.3     1  UNL1        0.1150
     16 C          10.0142   32.0945    9.0586 C.2     1  UNL1        0.2417
     17 O          10.3098   31.7680    7.8893 O.2     1  UNL1       -0.2734
     18 C          11.1825   32.2134   10.0590 C.3     1  UNL1        0.1517
     19 N          11.7232   33.5912    9.9736 N.3     1  UNL1       -0.3135
     20 H          10.9766   34.2311   10.2534 H       1  UNL1        0.1193
     21 H          11.9287   33.8221    9.0023 H       1  UNL1        0.1193
     22 C           6.3348   33.1102    5.8288 C.3     1  UNL1        0.1742
     23 O           5.9797   33.4819    7.1566 O.3     1  UNL1       -0.3493
     24 O           3.9004   32.0550   10.0143 O.3     1  UNL1       -0.3280
     25 C           3.5266   31.1482    8.9608 C.3     1  UNL1        0.2498
     26 O           3.1066   29.8923    9.4964 O.3     1  UNL1       -0.3307
     27 C           1.8603   29.9823   10.2073 C.3     1  UNL1        0.1319
     28 C           0.7474   30.3678    9.2310 C.3     1  UNL1        0.0326
     29 C           1.0447   31.7354    8.6239 C.3     1  UNL1        0.0232
     30 C           2.4455   31.7570    8.0042 C.3     1  UNL1        0.1081
     31 N           2.7681   33.1142    7.5297 N.3     1  UNL1       -0.3182
     32 H           3.0145   33.6865    8.3393 H       1  UNL1        0.1190
     33 H           1.9441   33.5404    7.1088 H       1  UNL1        0.1190
     34 C           1.5854   28.6346   10.9272 C.3     1  UNL1        0.0784
     35 C           2.4459   27.5178   10.3284 C.3     1  UNL1        0.0194
     36 N           0.1687   28.2500   10.8534 N.3     1  UNL1       -0.3203
     37 H           0.0503   27.3019   11.2069 H       1  UNL1        0.1189
     38 H          -0.0983   28.2217    9.8666 H       1  UNL1        0.1189
@<TRIPOS>BOND
     1    22    23    1
     2    23     1    1
     3     1     2    1
     4     1     9    1
     5     2     3    1
     6     2     4    1
     7     3    10    1
     8     4     5    1
     9     4     6    1
    10     5    11    1
    11     5    12    1
    12     6     7    1
    13     6    24    1
    14    24    25    1
    15    25    26    1
    16    25    30    1
    17    26    27    1
    18    27    28    1
    19    34    35    1
    20    34    36    1
    21    34    27    1
    22    36    37    1
    23    36    38    1
    24    28    29    1
    25    29    30    1
    26    30    31    1
    27    31    32    1
    28    31    33    1
    29     7     8    1
    30     7     9    1
    31     8    13    1
    32     9    14    1
    33    14    15    1
    34    14    16   am
    35    16    17    2
    36    16    18    1
    37    18    19    1
    38    19    20    1
    39    19    21    1
#	Name:			CHEMBL30
#	Creating user name:	trannguyen
#	Creation time:		Tue Feb  8 18:26:14 2022


#	Modifying user name:	trannguyen
#	Modification time:	Tue Feb  8 18:26:14 2022

@<TRIPOS>MOLECULE
CHEMBL30
 20 20 0 0 0
SMALL
GASTEIGER

@<TRIPOS>ATOM
      1 C           4.9137   30.9925    9.3848 C.3     1  UNL1        0.2316
      2 C           2.7800   29.9788    9.9827 C.cat   1  UNL1        0.3967
      3 N           3.4873   31.0225    9.7089 N.pl3   1  UNL1       -0.0959
      4 C           0.4206   30.1567    9.2411 C.3     1  UNL1        0.2169
      5 N           1.4426   30.1325   10.2669 N.pl3   1  UNL1       -0.2580
      6 H           1.2055   30.7270   11.0539 H       1  UNL1        0.2589
      7 N           3.2463   28.7070   10.0671 N.pl3   1  UNL1       -0.1776
      8 H           3.5856   28.2951    9.2220 H       1  UNL1        0.2780
      9 C           2.6030   27.7635   10.9239 C.1     1  UNL1        0.2551
     10 N           2.1341   26.9777   11.6292 N.1     1  UNL1       -0.1538
     11 C           5.3269   32.3672    8.8523 C.3     1  UNL1        0.1048
     12 S           6.3322   32.2214    7.3302 S.3     1  UNL1       -0.1300
     13 C           5.2179   33.0835    6.1652 C.3     1  UNL1        0.1044
     14 C           4.5638   32.1581    5.1947 C.ar    1  UNL1        0.0829
     15 N           3.2253   31.8537    5.3503 N.ar    1  UNL1       -0.2280
     16 C           2.9322   31.0215    4.3820 C.ar    1  UNL1        0.1745
     17 N           4.0085   30.7939    3.5786 N.ar    1  UNL1       -0.3385
     18 H           4.0183   30.2022    2.7594 H       1  UNL1        0.1672
     19 C           5.0677   31.5143    4.0747 C.ar    1  UNL1        0.0497
     20 C           6.3981   31.4837    3.4258 C.3     1  UNL1        0.0511
@<TRIPOS>BOND
     1     4     5    1
     2     5     2    1
     3     5     6    1
     4     2     3    2
     5     2     7    1
     6     3     1    1
     7     1    11    1
     8    11    12    1
     9    12    13    1
    10    13    14    1
    11    14    15   ar
    12    14    19   ar
    13    15    16   ar
    14    16    17   ar
    15    17    18    1
    16    17    19   ar
    17    19    20    1
    18     7     9    1
    19     7     8    1
    20     9    10    3
#	Name:			CHEMBL310555
#	Creating user name:	trannguyen
#	Creation time:		Tue Feb  8 18:26:14 2022


#	Modifying user name:	trannguyen
#	Modification time:	Tue Feb  8 18:26:14 2022

@<TRIPOS>MOLECULE
CHEMBL310555
 12 13 0 0 0
SMALL
GASTEIGER

@<TRIPOS>ATOM
      1 O           1.9233   27.6479   11.9836 O.3     1  UNL1       -0.5040
      2 C           1.6430   28.5209   10.9569 C.ar    1  UNL1        0.1511
      3 C           0.3211   28.6311   10.5120 C.ar    1  UNL1        0.0382
      4 C           0.0163   29.5042    9.4746 C.ar    1  UNL1        0.0032
      5 C           1.0297   30.2601    8.8905 C.ar    1  UNL1        0.0017
      6 C           2.3566   30.1531    9.3457 C.ar    1  UNL1        0.0207
      7 C           3.3778   30.9241    8.7717 C.ar    1  UNL1        0.0032
      8 C           4.6791   30.8137    9.2433 C.ar    1  UNL1        0.0207
      9 C           4.9187   29.9264   10.2717 C.ar    1  UNL1        0.0989
     10 N           3.9635   29.1641   10.8443 N.ar    1  UNL1       -0.2408
     11 C           2.6891   29.2707   10.3974 C.ar    1  UNL1        0.1148
     12 H           1.1050   27.2205   12.2765 H       1  UNL1        0.2923
@<TRIPOS>BOND
     1     1     2    1
     2     1    12    1
     3     2     3   ar
     4     2    11   ar
     5     3     4   ar
     6     4     5   ar
     7     5     6   ar
     8     6     7   ar
     9     6    11   ar
    10     7     8   ar
    11     8     9   ar
    12     9    10   ar
    13    10    11   ar
#	Name:			CHEMBL311350
#	Creating user name:	trannguyen
#	Creation time:		Tue Feb  8 18:26:14 2022


#	Modifying user name:	trannguyen
#	Modification time:	Tue Feb  8 18:26:14 2022

@<TRIPOS>MOLECULE
CHEMBL311350
 22 24 0 0 0
SMALL
GASTEIGER

@<TRIPOS>ATOM
      1 N           4.0818   30.3354    9.4569 N.ar    1  UNL1       -0.3111
      2 C           3.3374   29.5464   10.3184 C.ar    1  UNL1        0.0867
      3 C           2.0126   29.3354   10.2418 C.ar    1  UNL1        0.1316
      4 C           1.2959   30.0271    9.1452 C.ar    1  UNL1        0.2077
      5 O           0.0884   29.8774    9.0009 O.2     1  UNL1       -0.2861
      6 C           2.0756   30.8919    8.2496 C.ar    1  UNL1        0.0926
      7 C           1.4913   31.5821    7.2213 C.ar    1  UNL1        0.1080
      8 N           2.1919   32.3612    6.3777 N.ar    1  UNL1       -0.2119
      9 C           3.5159   32.4686    6.5798 C.ar    1  UNL1        0.2215
     10 N           4.1522   31.8291    7.5767 N.ar    1  UNL1       -0.1961
     11 C           3.4417   31.0374    8.4058 C.ar    1  UNL1        0.1513
     12 N           4.2523   33.2463    5.7206 N.pl3   1  UNL1       -0.2782
     13 C           3.6305   33.7667    4.5105 C.3     1  UNL1        0.0937
     14 C           4.7121   33.5942    3.4425 C.3     1  UNL1        0.0233
     15 C           6.0055   33.6840    4.2377 C.3     1  UNL1        0.0233
     16 C           5.6579   32.9294    5.5170 C.3     1  UNL1        0.0937
     17 C           1.3538   28.4426   11.2139 C.2     1  UNL1        0.3427
     18 O           1.8884   28.0629   12.2436 O.2     1  UNL1       -0.2449
     19 O           0.1017   28.0702   10.8782 O.3     1  UNL1       -0.4770
     20 H          -0.2190   28.4381   10.0172 H       1  UNL1        0.2954
     21 C           6.0679   29.8995   10.8524 C.3     1  UNL1        0.0265
     22 C           5.5388   30.4905    9.5540 C.3     1  UNL1        0.1076
@<TRIPOS>BOND
     1    21    22    1
     2    22     1    1
     3     1     2   ar
     4     1    11   ar
     5     2     3   ar
     6     3    17    1
     7     3     4   ar
     8    17    18    2
     9    17    19    1
    10    19    20    1
    11     4     5    2
    12     4     6   ar
    13     6     7   ar
    14     6    11   ar
    15     7     8   ar
    16     8     9   ar
    17     9    12    1
    18     9    10   ar
    19    12    13    1
    20    12    16    1
    21    13    14    1
    22    14    15    1
    23    15    16    1
    24    10    11   ar
#	Name:			CHEMBL311469
#	Creating user name:	trannguyen
#	Creation time:		Tue Feb  8 18:26:14 2022


#	Modifying user name:	trannguyen
#	Modification time:	Tue Feb  8 18:26:14 2022

@<TRIPOS>MOLECULE
CHEMBL311469
 18 20 0 0 0
SMALL
GASTEIGER

@<TRIPOS>ATOM
      1 C           6.4123   31.3801    9.0035 C.ar    1  UNL1        0.0500
      2 C           5.4682   32.1803    8.3348 C.ar    1  UNL1        0.0147
      3 C           4.0963   31.8951    8.3934 C.ar    1  UNL1        0.0010
      4 C           3.6777   30.8013    9.1269 C.ar    1  UNL1       -0.0039
      5 C           4.6180   29.9973    9.8007 C.ar    1  UNL1       -0.0166
      6 C           5.9769   30.2732    9.7483 C.ar    1  UNL1        0.0107
      7 C           3.9162   28.8677   10.5285 C.3     1  UNL1        0.0527
      8 C           2.4639   29.1237   10.1802 C.ar    1  UNL1       -0.0178
      9 C           1.3487   28.3973   10.5634 C.ar    1  UNL1       -0.0039
     10 C           0.0996   28.8281   10.1111 C.ar    1  UNL1       -0.0003
     11 C          -0.0169   29.9655    9.2935 C.ar    1  UNL1       -0.0000
     12 C           1.1143   30.6936    8.9117 C.ar    1  UNL1       -0.0003
     13 C           2.3532   30.2664    9.3583 C.ar    1  UNL1       -0.0039
     14 C          10.0194   32.3490    9.5325 C.3     1  UNL1        0.0949
     15 C           8.5565   32.3231    9.8997 C.2     1  UNL1        0.2266
     16 O           8.1595   32.8606   10.9264 O.2     1  UNL1       -0.2748
     17 N           7.8024   31.6226    8.9747 N.am    1  UNL1       -0.2839
     18 H           8.3010   31.2359    8.1836 H       1  UNL1        0.1549
@<TRIPOS>BOND
     1    14    15    1
     2    15    16    2
     3    15    17   am
     4    17     1    1
     5    17    18    1
     6     1     2   ar
     7     1     6   ar
     8     2     3   ar
     9     3     4   ar
    10     4     5   ar
    11     4    13    1
    12     5     6   ar
    13     5     7    1
    14     7     8    1
    15     8     9   ar
    16     8    13   ar
    17     9    10   ar
    18    10    11   ar
    19    11    12   ar
    20    12    13   ar
#	Name:			CHEMBL31184
#	Creating user name:	trannguyen
#	Creation time:		Tue Feb  8 18:26:14 2022


#	Modifying user name:	trannguyen
#	Modification time:	Tue Feb  8 18:26:14 2022

@<TRIPOS>MOLECULE
CHEMBL31184
 20 24 0 0 0
SMALL
GASTEIGER

@<TRIPOS>ATOM
      1 C          -0.1206   28.8288   10.2270 C.ar    1  UNL1        0.0000
      2 C           0.9093   28.3650   11.0295 C.ar    1  UNL1        0.0000
      3 C           2.2154   28.8145   10.8142 C.ar    1  UNL1        0.0000
      4 C           2.5404   29.7425    9.7910 C.ar    1  UNL1        0.0000
      5 C           1.4682   30.1997    8.9862 C.ar    1  UNL1        0.0000
      6 C           0.1585   29.7401    9.2122 C.ar    1  UNL1        0.0000
      7 C           1.7083   31.1156    7.9562 C.ar    1  UNL1        0.0000
      8 C           2.9925   31.6011    7.6929 C.ar    1  UNL1        0.0000
      9 C           3.2061   32.5186    6.6546 C.ar    1  UNL1        0.0000
     10 C           4.4830   33.0091    6.3836 C.ar    1  UNL1        0.0000
     11 C           5.5791   32.5936    7.1450 C.ar    1  UNL1        0.0000
     12 C           6.8682   33.0804    6.8813 C.ar    1  UNL1        0.0000
     13 C           7.9554   32.6612    7.6450 C.ar    1  UNL1        0.0000
     14 C           7.7661   31.7502    8.6814 C.ar    1  UNL1        0.0000
     15 C           6.4872   31.2482    8.9658 C.ar    1  UNL1        0.0000
     16 C           6.2863   30.3361   10.0008 C.ar    1  UNL1        0.0000
     17 C           5.0077   29.8422   10.2754 C.ar    1  UNL1        0.0000
     18 C           3.8686   30.2326    9.5332 C.ar    1  UNL1        0.0000
     19 C           4.0794   31.1621    8.4799 C.ar    1  UNL1        0.0000
     20 C           5.3800   31.6672    8.1974 C.ar    1  UNL1        0.0000
@<TRIPOS>BOND
     1     1     2   ar
     2     1     6   ar
     3     2     3   ar
     4     3     4   ar
     5     4     5   ar
     6     4    18   ar
     7     5     6   ar
     8     5     7   ar
     9     7     8   ar
    10     8     9   ar
    11     8    19   ar
    12     9    10   ar
    13    10    11   ar
    14    11    12   ar
    15    11    20   ar
    16    12    13   ar
    17    13    14   ar
    18    14    15   ar
    19    15    16   ar
    20    15    20   ar
    21    16    17   ar
    22    17    18   ar
    23    18    19   ar
    24    19    20   ar
#	Name:			CHEMBL313493
#	Creating user name:	trannguyen
#	Creation time:		Tue Feb  8 18:26:14 2022


#	Modifying user name:	trannguyen
#	Modification time:	Tue Feb  8 18:26:14 2022

@<TRIPOS>MOLECULE
CHEMBL313493
 6 5 0 0 0
SMALL
GASTEIGER

@<TRIPOS>ATOM
      1 S           2.3577   27.9616   10.9139 S.O2    1  UNL1        0.0957
      2 C           1.1243   28.8222    9.9695 C.3     1  UNL1        0.2097
      3 O           2.9397   26.9266   10.0862 O.2     1  UNL1       -0.1464
      4 O           1.8258   27.6831   12.2307 O.2     1  UNL1       -0.1464
      5 C           4.5816   29.1150   10.2276 C.3     1  UNL1        0.2089
      6 O           3.4200   29.1905   11.0324 O.3     1  UNL1       -0.2215
@<TRIPOS>BOND
     1     5     6    1
     2     6     1    1
     3     1     2    1
     4     1     3    2
     5     1     4    2
#	Name:			CHEMBL316561
#	Creating user name:	trannguyen
#	Creation time:		Tue Feb  8 18:26:14 2022


#	Modifying user name:	trannguyen
#	Modification time:	Tue Feb  8 18:26:14 2022

@<TRIPOS>MOLECULE
CHEMBL316561
 26 26 0 0 0
SMALL
GASTEIGER

@<TRIPOS>ATOM
      1 C           4.6712   32.7665    7.3785 C.3     1  UNL1        0.1496
      2 N           4.1957   31.5473    8.0709 N.am    1  UNL1       -0.2948
      3 C           3.5122   31.5270    9.2710 C.2     1  UNL1        0.2461
      4 O           3.3125   32.5291    9.9477 O.2     1  UNL1       -0.2701
      5 H           4.5139   30.6689    7.6741 H       1  UNL1        0.1501
      6 C           3.0335   30.1796    9.7352 C.ar    1  UNL1        0.0534
      7 C           3.9367   29.1108    9.8429 C.ar    1  UNL1        0.0045
      8 C           3.4969   27.8505   10.2726 C.ar    1  UNL1        0.0001
      9 C           2.1604   27.6548   10.6195 C.ar    1  UNL1        0.0000
     10 C           1.2597   28.7141   10.5290 C.ar    1  UNL1        0.0001
     11 C           1.6921   29.9698   10.0881 C.ar    1  UNL1        0.0045
     12 N           7.1949   32.8493    7.9029 N.am    1  UNL1       -0.2782
     13 C           6.1734   32.5252    6.9978 C.2     1  UNL1        0.2435
     14 O           6.4375   32.1072    5.8625 O.2     1  UNL1       -0.2731
     15 C           6.9688   33.2971    9.2805 C.3     1  UNL1        0.0934
     16 C           6.8965   31.0889   10.4197 C.3     1  UNL1        0.0018
     17 C           7.6079   32.4399   10.3687 C.3     1  UNL1        0.0215
     18 C           8.6067   32.6554    7.4847 C.3     1  UNL1        0.0934
     19 C           9.0155   31.1804    7.2961 C.3     1  UNL1        0.0215
     20 C          10.0984   30.7229    8.2751 C.3     1  UNL1        0.0018
     21 C           3.8174   33.0038    6.1092 C.3     1  UNL1        0.0406
     22 C           3.1841   31.7435    5.5264 C.3     1  UNL1        0.1116
     23 C           1.6813   31.6982    5.6612 C.2     1  UNL1        0.3139
     24 O           0.8881   32.3391    5.0182 O.2     1  UNL1       -0.2503
     25 O           1.3144   30.8023    6.6159 O.3     1  UNL1       -0.4802
     26 H           2.0718   30.4217    7.0970 H       1  UNL1        0.2951
@<TRIPOS>BOND
     1    16    17    1
     2    17    15    1
     3    15    12    1
     4    12    18    1
     5    12    13   am
     6    18    19    1
     7    19    20    1
     8    13    14    2
     9    13     1    1
    10     1    21    1
    11     1     2    1
    12    21    22    1
    13    22    23    1
    14    23    24    2
    15    23    25    1
    16    25    26    1
    17     2     3   am
    18     2     5    1
    19     3     4    2
    20     3     6    1
    21     6     7   ar
    22     6    11   ar
    23     7     8   ar
    24     8     9   ar
    25     9    10   ar
    26    10    11   ar
#	Name:			CHEMBL317142
#	Creating user name:	trannguyen
#	Creation time:		Tue Feb  8 18:26:14 2022


#	Modifying user name:	trannguyen
#	Modification time:	Tue Feb  8 18:26:14 2022

@<TRIPOS>MOLECULE
CHEMBL317142
 41 44 0 0 0
SMALL
GASTEIGER

@<TRIPOS>ATOM
      1 C           7.2013   33.7598    9.8504 C.ar    1  UNL1        0.0112
      2 C           5.8298   33.3473    9.8647 C.ar    1  UNL1        0.1312
      3 C           5.4189   32.2060    9.1013 C.ar    1  UNL1        0.0193
      4 C           6.4208   31.4173    8.4954 C.ar    1  UNL1       -0.0007
      5 C           7.7810   31.6627    8.6682 C.ar    1  UNL1       -0.0004
      6 C           8.7027   30.7394    8.1330 C.ar    1  UNL1       -0.0000
      7 C          10.0655   30.8505    8.3757 C.ar    1  UNL1       -0.0000
      8 C          10.5204   31.9084    9.1405 C.ar    1  UNL1       -0.0000
      9 C           9.6154   32.8821    9.5965 C.ar    1  UNL1       -0.0002
     10 C           8.2051   32.8068    9.3796 C.ar    1  UNL1       -0.0011
     11 C           8.8051   35.3301   11.3071 C.3     1  UNL1        0.0048
     12 C           7.7054   35.1797   10.2258 C.3     1  UNL1        0.0253
     13 C           7.9951   36.0897    9.0198 C.3     1  UNL1        0.0048
     14 O           4.8405   33.9794   10.5855 O.3     1  UNL1       -0.4735
     15 C           3.9596   34.9388    9.9331 C.3     1  UNL1        0.2344
     16 C           2.4194   34.7050   10.0054 C.3     1  UNL1        0.1564
     17 O           2.1112   33.5630   10.8276 O.3     1  UNL1       -0.3806
     18 H           2.5586   33.6723   11.6809 H       1  UNL1        0.2105
     19 C           1.5529   35.8433   10.6226 C.3     1  UNL1        0.0627
     20 C           1.4706   37.2435   10.0028 C.3     1  UNL1        0.1186
     21 O           0.3629   37.2593    9.1004 O.3     1  UNL1       -0.3840
     22 H           0.1455   38.2167    9.0307 H       1  UNL1        0.2104
     23 C           1.4165   38.4197   10.9857 C.3     1  UNL1        0.0710
     24 C           1.1250   39.6842   10.1876 C.2     1  UNL1        0.0528
     25 O           1.8257   39.8297    9.1425 O.co2   1  UNL1       -0.5491
     26 O           0.2596   40.5168   10.6530 O.co2   1  UNL1       -0.5491
     27 C           3.9602   31.7296    8.8197 C.3     1  UNL1        0.0696
     28 C           3.5292   31.8452    7.3507 C.ar    1  UNL1       -0.0141
     29 C           2.3481   31.2365    6.8739 C.ar    1  UNL1       -0.0013
     30 C           2.0008   31.3207    5.5192 C.ar    1  UNL1        0.0293
     31 C           2.8204   32.0211    4.6431 C.ar    1  UNL1        0.1401
     32 F           2.4965   32.0968    3.3454 F       1  UNL1       -0.2042
     33 C           3.9791   32.6369    5.0918 C.ar    1  UNL1        0.0293
     34 C           4.3329   32.5426    6.4360 C.ar    1  UNL1       -0.0013
     35 C           3.5140   30.4124    9.5124 C.ar    1  UNL1       -0.0141
     36 C           2.2233   30.2917   10.0853 C.ar    1  UNL1       -0.0013
     37 C           1.7951   29.0862   10.6615 C.ar    1  UNL1        0.0293
     38 C           2.6577   28.0001   10.6975 C.ar    1  UNL1        0.1401
     39 F           2.2503   26.8407   11.2317 F       1  UNL1       -0.2042
     40 C           3.9399   28.1006   10.1815 C.ar    1  UNL1        0.0293
     41 C           4.3663   29.3001    9.6054 C.ar    1  UNL1       -0.0013
@<TRIPOS>UNITY_ATOM_ATTR
25 1
charge -1
@<TRIPOS>BOND
     1    11    12    1
     2    12    13    1
     3    12     1    1
     4     1     2   ar
     5     1    10   ar
     6     2    14    1
     7     2     3   ar
     8    14    15    1
     9    15    16    1
    10    16    17    1
    11    16    19    1
    12    17    18    1
    13    19    20    1
    14    20    21    1
    15    20    23    1
    16    21    22    1
    17    23    24    1
    18    24    25   ar
    19    24    26   ar
    20     3    27    1
    21     3     4   ar
    22    27    28    1
    23    27    35    1
    24    28    29   ar
    25    28    34   ar
    26    29    30   ar
    27    30    31   ar
    28    31    32    1
    29    31    33   ar
    30    33    34   ar
    31    35    36   ar
    32    35    41   ar
    33    36    37   ar
    34    37    38   ar
    35    38    39    1
    36    38    40   ar
    37    40    41   ar
    38     4     5   ar
    39     5     6   ar
    40     5    10   ar
    41     6     7   ar
    42     7     8   ar
    43     8     9   ar
    44     9    10   ar
#	Name:			CHEMBL3183075
#	Creating user name:	trannguyen
#	Creation time:		Tue Feb  8 18:26:14 2022


#	Modifying user name:	trannguyen
#	Modification time:	Tue Feb  8 18:26:14 2022

@<TRIPOS>MOLECULE
CHEMBL3183075
 23 23 0 0 0
SMALL
GASTEIGER

@<TRIPOS>ATOM
      1 C           2.5398   33.0632    9.4221 C.3     1  UNL1        0.1085
      2 C           1.4286   32.2537   10.0903 C.3     1  UNL1        0.2107
      3 N           1.9176   31.0539   10.7793 N.pl3   1  UNL1       -0.2215
      4 H           2.0137   31.1600   11.7922 H       1  UNL1        0.2920
      5 C           1.6898   29.7427   10.3625 C.2     1  UNL1        0.2859
      6 C           2.5853   28.8185   10.7799 C.2     1  UNL1        0.1924
      7 C          -0.5879   28.7193   10.1327 C.3     1  UNL1        0.2502
      8 N           0.5424   29.5210    9.6611 N.pl3   1  UNL1       -0.2188
      9 H           0.7607   29.2170    8.7098 H       1  UNL1        0.2921
     10 N           2.4927   27.3888   10.7466 N.pl3   1  UNL1       -0.1765
     11 O           2.0414   26.8600   11.7657 O.2     1  UNL1       -0.1723
     12 O           2.9107   26.7650    9.7838 O.co2   1  UNL1       -0.7768
     13 S           3.7287   31.9655    8.5562 S.3     1  UNL1       -0.1294
     14 C           2.7317   31.4694    7.0999 C.3     1  UNL1        0.1037
     15 C           3.1456   32.1004    5.7950 C.ar    1  UNL1        0.0766
     16 C           2.4236   32.1646    4.6168 C.ar    1  UNL1        0.0522
     17 S           3.2296   33.0879    3.4372 S.2     1  UNL1       -0.0692
     18 C           4.5716   33.2446    4.5010 C.ar    1  UNL1        0.1041
     19 N           4.4010   32.7121    5.7026 N.ar    1  UNL1       -0.2447
     20 C           5.7829   34.0286    4.0322 C.3     1  UNL1        0.1256
     21 N           7.0240   33.2397    3.8466 N.3     1  UNL1       -0.2648
     22 C           7.6546   32.9862    5.1480 C.3     1  UNL1        0.0900
     23 C           6.7944   31.9689    3.1606 C.3     1  UNL1        0.0900
@<TRIPOS>UNITY_ATOM_ATTR
12 1
charge -1
@<TRIPOS>BOND
     1     7     8    1
     2     8     5    1
     3     8     9    1
     4     5     6    2
     5     5     3    1
     6     6    10    1
     7    10    11    2
     8    10    12    1
     9     3     2    1
    10     3     4    1
    11     2     1    1
    12     1    13    1
    13    13    14    1
    14    14    15    1
    15    15    16   ar
    16    15    19   ar
    17    16    17   ar
    18    17    18   ar
    19    18    20    1
    20    18    19   ar
    21    20    21    1
    22    21    22    1
    23    21    23    1
#	Name:			CHEMBL319244
#	Creating user name:	trannguyen
#	Creation time:		Tue Feb  8 18:26:14 2022


#	Modifying user name:	trannguyen
#	Modification time:	Tue Feb  8 18:26:14 2022

@<TRIPOS>MOLECULE
CHEMBL319244
 23 24 0 0 0
SMALL
GASTEIGER

@<TRIPOS>ATOM
      1 C           5.4446   31.1707    9.2668 C.2     1  UNL1        0.0819
      2 C           5.1987   29.9176    9.6830 C.2     1  UNL1        0.0068
      3 C           3.8418   29.4245    9.9732 C.ar    1  UNL1        0.0034
      4 C           2.7320   30.2321    9.6684 C.ar    1  UNL1        0.0033
      5 C           1.4264   29.7873    9.9197 C.ar    1  UNL1        0.0398
      6 C           1.2346   28.5369   10.4927 C.ar    1  UNL1        0.1675
      7 O          -0.0105   28.0369   10.7479 O.3     1  UNL1       -0.5029
      8 C           2.3285   27.7477   10.8282 C.ar    1  UNL1        0.1675
      9 O           2.1383   26.5233   11.4048 O.3     1  UNL1       -0.5029
     10 C           3.6234   28.1805   10.5827 C.ar    1  UNL1        0.0398
     11 H          -0.6674   28.6682   10.4075 H       1  UNL1        0.2923
     12 H           1.1684   26.4375   11.4822 H       1  UNL1        0.2923
     13 O           7.6961   31.8073    9.7962 O.2     1  UNL1       -0.2449
     14 C           6.8175   31.6248    8.9719 C.2     1  UNL1        0.3414
     15 O           6.9182   31.7788    7.6265 O.3     1  UNL1       -0.4451
     16 C           6.0012   32.7162    7.0389 C.3     1  UNL1        0.2134
     17 C           5.6998   32.3530    5.5838 C.3     1  UNL1        0.0738
     18 C           4.2195   32.2645    5.3044 C.ar    1  UNL1       -0.0184
     19 C           3.3355   31.7736    6.2744 C.ar    1  UNL1       -0.0041
     20 C           1.9671   31.6885    6.0071 C.ar    1  UNL1       -0.0003
     21 C           1.4687   32.0946    4.7707 C.ar    1  UNL1       -0.0000
     22 C           2.3362   32.5959    3.8034 C.ar    1  UNL1       -0.0003
     23 C           3.7026   32.6875    4.0709 C.ar    1  UNL1       -0.0041
@<TRIPOS>BOND
     1    13    14    2
     2    14     1    1
     3    14    15    1
     4     1     2    2
     5     2     3    1
     6     3     4   ar
     7     3    10   ar
     8     4     5   ar
     9     5     6   ar
    10     6     7    1
    11     6     8   ar
    12     7    11    1
    13     8     9    1
    14     8    10   ar
    15     9    12    1
    16    15    16    1
    17    16    17    1
    18    17    18    1
    19    18    19   ar
    20    18    23   ar
    21    19    20   ar
    22    20    21   ar
    23    21    22   ar
    24    22    23   ar
#	Name:			CHEMBL31
#	Creating user name:	trannguyen
#	Creation time:		Tue Feb  8 18:26:14 2022


#	Modifying user name:	trannguyen
#	Modification time:	Tue Feb  8 18:26:14 2022

@<TRIPOS>MOLECULE
CHEMBL31
 29 32 0 0 0
SMALL
GASTEIGER

@<TRIPOS>ATOM
      1 C           4.5968   32.3166    8.5067 C.ar    1  UNL1        0.1698
      2 C           5.9872   32.0825    8.7083 C.ar    1  UNL1        0.1116
      3 C           6.3304   30.9081    9.4074 C.ar    1  UNL1        0.1565
      4 F           7.6165   30.6245    9.6675 F       1  UNL1       -0.2028
      5 C           5.3807   30.0027    9.8700 C.ar    1  UNL1        0.0358
      6 C           4.0282   30.2923    9.7187 C.ar    1  UNL1        0.0603
      7 C           3.0196   29.3103   10.1911 C.ar    1  UNL1        0.2048
      8 O           3.3488   28.2388   10.6965 O.2     1  UNL1       -0.2862
      9 C           1.5871   29.6426   10.0420 C.ar    1  UNL1        0.1314
     10 C           1.3033   30.8802    9.6120 C.ar    1  UNL1        0.0856
     11 N           2.2243   31.8451    9.2237 N.ar    1  UNL1       -0.3252
     12 C           3.6112   31.5021    9.1343 C.ar    1  UNL1        0.0987
     13 N           6.9540   32.9728    8.2325 N.pl3   1  UNL1       -0.3006
     14 C           7.7635   32.6543    7.0422 C.3     1  UNL1        0.1080
     15 C           8.2654   33.9726    6.3970 C.3     1  UNL1        0.0903
     16 N           8.9904   34.8528    7.3386 N.3     1  UNL1       -0.2957
     17 C           8.1378   35.1103    8.5237 C.3     1  UNL1        0.0741
     18 C           8.8658   36.0379    9.4889 C.3     1  UNL1        0.0189
     19 C           7.6876   33.7930    9.2211 C.3     1  UNL1        0.1066
     20 H           9.2037   35.7349    6.8752 H       1  UNL1        0.1233
     21 C           0.4838   28.7252   10.4019 C.2     1  UNL1        0.3427
     22 O          -0.6267   28.7925    9.9181 O.2     1  UNL1       -0.2449
     23 O           0.8082   27.8133   11.3497 O.3     1  UNL1       -0.4770
     24 H           1.7628   27.8111   11.6002 H       1  UNL1        0.2954
     25 C           1.7881   33.2577    9.3782 C.3     1  UNL1        0.0857
     26 C           0.7544   33.6278   10.4277 C.3     1  UNL1        0.0245
     27 C           2.1486   34.1433   10.5494 C.3     1  UNL1        0.0245
     28 C           3.9243   33.0686    6.3330 C.3     1  UNL1        0.2526
     29 O           4.1256   33.3505    7.7194 O.3     1  UNL1       -0.4686
@<TRIPOS>BOND
     1    28    29    1
     2    29     1    1
     3     1     2   ar
     4     1    12   ar
     5     2    13    1
     6     2     3   ar
     7    13    14    1
     8    13    19    1
     9    14    15    1
    10    15    16    1
    11    16    17    1
    12    16    20    1
    13    17    18    1
    14    17    19    1
    15     3     4    1
    16     3     5   ar
    17     5     6   ar
    18     6     7   ar
    19     6    12   ar
    20     7     8    2
    21     7     9   ar
    22     9    21    1
    23     9    10   ar
    24    21    22    2
    25    21    23    1
    26    23    24    1
    27    10    11   ar
    28    11    25    1
    29    11    12   ar
    30    25    26    1
    31    25    27    1
    32    26    27    1
#	Name:			CHEMBL3215298
#	Creating user name:	trannguyen
#	Creation time:		Tue Feb  8 18:26:14 2022


#	Modifying user name:	trannguyen
#	Modification time:	Tue Feb  8 18:26:14 2022

@<TRIPOS>MOLECULE
CHEMBL3215298
 65 71 0 0 0
SMALL
GASTEIGER

@<TRIPOS>ATOM
      1 C           8.6131   33.3866   -9.0721 C.3     1  UNL1        0.1218
      2 O           9.2631   33.6772   -7.8122 O.3     1  UNL1       -0.3330
      3 C           8.5625   33.7850   -6.5543 C.3     1  UNL1        0.2099
      4 C           7.3533   32.8633   -6.5873 C.2     1  UNL1        0.0245
      5 C           6.7665   32.3621   -7.6784 C.2     1  UNL1       -0.0238
      6 C           7.1945   32.7602   -9.0402 C.3     1  UNL1        0.0491
      7 C           7.0633   31.5771  -10.0239 C.3     1  UNL1        0.0072
      8 C           8.3319   35.3033   -6.2089 C.3     1  UNL1        0.1044
      9 C           7.9066   35.6132   -4.7296 C.3     1  UNL1        0.1765
     10 C           7.9772   34.3437   -3.8334 C.3     1  UNL1        0.0738
     11 C           8.9442   33.1820   -4.2341 C.3     1  UNL1        0.1258
     12 C          10.0152   32.6822   -3.2123 C.3     1  UNL1        0.0552
     13 C          10.3841   33.6898   -2.1689 C.2     1  UNL1       -0.0298
     14 C          11.5723   33.8626   -1.5657 C.2     1  UNL1       -0.0211
     15 C          12.6051   32.7605   -1.4482 C.3     1  UNL1        0.0285
     16 C          11.8653   35.1125   -0.7464 C.3     1  UNL1        0.1397
     17 C          12.4973   36.3542   -1.4878 C.3     1  UNL1        0.0532
     18 C          13.6551   35.8801   -2.3978 C.3     1  UNL1        0.0075
     19 C          11.6685   37.3991   -2.2321 C.2     1  UNL1       -0.0237
     20 C          12.2489   38.5667   -2.5501 C.2     1  UNL1       -0.0050
     21 C          11.7847   39.7489   -3.2182 C.2     1  UNL1       -0.0041
     22 C          10.6454   40.4386   -3.0349 C.2     1  UNL1        0.0122
     23 C          10.8439   41.9608   -3.0534 C.3     1  UNL1        0.1668
     24 O           9.9495   42.4395   -2.0529 O.3     1  UNL1       -0.3462
     25 C           8.8017   41.5780   -2.2199 C.3     1  UNL1        0.1749
     26 C           7.8267   41.8020   -1.0783 C.3     1  UNL1        0.1582
     27 O           7.2836   43.1227   -1.1908 O.3     1  UNL1       -0.3778
     28 C           6.7274   40.7873   -1.2097 C.2     1  UNL1       -0.0188
     29 C           5.4729   41.1365   -0.4476 C.3     1  UNL1        0.0285
     30 C           6.8762   39.6192   -1.8906 C.2     1  UNL1       -0.0188
     31 C           8.2094   39.0061   -2.5041 C.3     1  UNL1        0.1510
     32 C           7.7781   38.0133   -3.7811 C.2     1  UNL1        0.3232
     33 O           6.6948   38.1549   -4.3367 O.2     1  UNL1       -0.2497
     34 O           8.5388   36.8424   -4.0230 O.3     1  UNL1       -0.4517
     35 C           9.3716   40.1169   -2.2618 C.3     1  UNL1        0.1467
     36 O           9.8461   39.8174   -0.9035 O.3     1  UNL1       -0.3795
     37 O           9.5000   33.3314   -5.5450 O.3     1  UNL1       -0.3328
     38 H           7.3278   43.5118   -0.2972 H       1  UNL1        0.2109
     39 H          10.4465   40.5221   -0.5846 H       1  UNL1        0.2108
     40 C           8.6796   34.6658   -9.9683 C.3     1  UNL1        0.0276
     41 C           7.3702   35.4591   -9.8244 C.3     1  UNL1        0.0025
     42 C           9.5905   37.0534   -9.5720 C.3     1  UNL1        0.0001
     43 C           9.8977   35.5676   -9.6470 C.3     1  UNL1        0.0024
     44 O          10.7898   35.4288    0.1673 O.3     1  UNL1       -0.3284
     45 C          11.2087   36.3412    1.2263 C.3     1  UNL1        0.2379
     46 C           9.9862   37.1140    1.7739 C.3     1  UNL1        0.0934
     47 C           9.7538   37.0729    3.2687 C.3     1  UNL1        0.1498
     48 C          10.1910   35.6888    3.8009 C.3     1  UNL1        0.1718
     49 C          11.7138   35.5402    3.5157 C.3     1  UNL1        0.1473
     50 C          12.6089   36.4353    4.3991 C.3     1  UNL1        0.0348
     51 O          12.1031   35.6993    2.1402 O.3     1  UNL1       -0.3304
     52 O          10.5065   38.2022    3.7476 O.3     1  UNL1       -0.3508
     53 C           9.7918   39.3603    4.1420 C.3     1  UNL1        0.1741
     54 O           9.5535   34.5162    3.2181 O.3     1  UNL1       -0.3279
     55 C           8.1328   34.3578    3.2583 C.3     1  UNL1        0.2377
     56 C           7.5439   34.5725    1.8353 C.3     1  UNL1        0.0934
     57 C           7.8011   33.3672    0.9372 C.3     1  UNL1        0.1494
     58 C           7.1921   32.1276    1.5809 C.3     1  UNL1        0.1647
     59 O           7.4807   30.9576    0.8002 O.3     1  UNL1       -0.3795
     60 C           7.6403   31.9434    3.0398 C.3     1  UNL1        0.1469
     61 C           6.6201   30.9804    3.6872 C.3     1  UNL1        0.0348
     62 O           7.6624   33.1384    3.8391 O.3     1  UNL1       -0.3304
     63 H           8.0034   31.2534    0.0265 H       1  UNL1        0.2105
     64 O           7.3764   33.5303   -0.4363 O.3     1  UNL1       -0.3508
     65 C           6.7590   34.7498   -0.8245 C.3     1  UNL1        0.1741
@<TRIPOS>BOND
     1    42    43    1
     2    40    41    1
     3    40    43    1
     4     1     2    1
     5     1     6    1
     6     1    40    1
     7     3     2    1
     8     3     4    1
     9     3     8    1
    10     3    37    1
    11     4     5    2
    12     5     6    1
    13     6     7    1
    14     8     9    1
    15     9    10    1
    16     9    34    1
    17    10    11    1
    18    11    12    1
    19    11    37    1
    20    12    13    1
    21    13    14    2
    22    14    16    1
    23    14    15    1
    24    16    17    1
    25    16    44    1
    26    44    45    1
    27    45    46    1
    28    45    51    1
    29    46    47    1
    30    47    52    1
    31    47    48    1
    32    52    53    1
    33    48    49    1
    34    48    54    1
    35    54    55    1
    36    55    56    1
    37    55    62    1
    38    56    57    1
    39    57    64    1
    40    57    58    1
    41    64    65    1
    42    58    60    1
    43    58    59    1
    44    59    63    1
    45    60    61    1
    46    60    62    1
    47    49    50    1
    48    49    51    1
    49    17    19    1
    50    17    18    1
    51    19    20    2
    52    20    21    1
    53    21    22    2
    54    22    23    1
    55    22    35    1
    56    23    24    1
    57    24    25    1
    58    25    26    1
    59    25    35    1
    60    26    28    1
    61    26    27    1
    62    27    38    1
    63    28    30    2
    64    28    29    1
    65    30    31    1
    66    31    32    1
    67    31    35    1
    68    32    34    1
    69    32    33    2
    70    35    36    1
    71    36    39    1
#	Name:			CHEMBL321713
#	Creating user name:	trannguyen
#	Creation time:		Tue Feb  8 18:26:14 2022


#	Modifying user name:	trannguyen
#	Modification time:	Tue Feb  8 18:26:14 2022

@<TRIPOS>MOLECULE
CHEMBL321713
 30 31 0 0 0
SMALL
GASTEIGER

@<TRIPOS>ATOM
      1 C           4.5742   32.4447    6.0513 C.ar    1  UNL1        0.1502
      2 C           4.0303   31.7250    4.9590 C.ar    1  UNL1        0.0922
      3 CL          2.4180   31.0896    5.0164 Cl      1  UNL1       -0.0791
      4 C           4.7949   31.4126    3.8417 C.ar    1  UNL1        0.0258
      5 C           6.1483   31.6907    3.8711 C.ar    1  UNL1        0.0586
      6 CL          7.1151   31.2984    2.5014 Cl      1  UNL1       -0.0822
      7 C           6.7407   32.2014    5.0358 C.ar    1  UNL1        0.0154
      8 C           5.9814   32.5573    6.1883 C.ar    1  UNL1        0.0734
      9 C           6.7939   33.0298    7.4365 C.3     1  UNL1        0.2853
     10 F           7.7876   33.8978    7.0084 F       1  UNL1       -0.1995
     11 F           6.0363   33.7912    8.2579 F       1  UNL1       -0.1995
     12 C           7.6061   31.9430    8.2668 C.3     1  UNL1        0.0656
     13 C           8.9121   32.4234    8.9739 C.3     1  UNL1        0.0058
     14 C           8.7104   33.3058   10.2142 C.3     1  UNL1        0.0002
     15 C           7.8489   32.6168   11.2657 C.3     1  UNL1        0.0000
     16 C           6.6123   32.0925   10.6042 C.3     1  UNL1        0.0002
     17 C           6.8614   31.2007    9.3797 C.3     1  UNL1        0.0058
     18 O           3.6051   33.0278    6.8456 O.3     1  UNL1       -0.4721
     19 C           3.3057   32.2725    8.0360 C.3     1  UNL1        0.2344
     20 C           1.8056   32.1747    8.3612 C.3     1  UNL1        0.1564
     21 O           1.5261   33.1746    9.3394 O.3     1  UNL1       -0.3806
     22 H           0.5650   33.1731    9.4757 H       1  UNL1        0.2105
     23 C           1.2404   30.7989    8.8227 C.3     1  UNL1        0.0627
     24 C           1.9298   29.9942    9.9310 C.3     1  UNL1        0.1186
     25 O           1.8764   30.7981   11.1261 O.3     1  UNL1       -0.3840
     26 H           0.9496   30.6893   11.4532 H       1  UNL1        0.2104
     27 C           1.3816   28.6119   10.2809 C.3     1  UNL1        0.0710
     28 O           1.9815   28.0214   12.5018 O.co2   1  UNL1       -0.5491
     29 C           2.1917   27.7452   11.2411 C.2     1  UNL1        0.0528
     30 O           2.9132   26.8883   10.7492 O.co2   1  UNL1       -0.5491
@<TRIPOS>UNITY_ATOM_ATTR
28 1
charge -1
@<TRIPOS>BOND
     1    28    29   ar
     2    29    30   ar
     3    29    27    1
     4    24    25    1
     5    24    23    1
     6    24    27    1
     7    25    26    1
     8    23    20    1
     9    20    21    1
    10    20    19    1
    11    21    22    1
    12    19    18    1
    13    18     1    1
    14     1     2   ar
    15     1     8   ar
    16     2     3    1
    17     2     4   ar
    18     4     5   ar
    19     5     6    1
    20     5     7   ar
    21     7     8   ar
    22     8     9    1
    23     9    10    1
    24     9    11    1
    25     9    12    1
    26    12    13    1
    27    12    17    1
    28    13    14    1
    29    14    15    1
    30    15    16    1
    31    16    17    1
#	Name:			CHEMBL323344
#	Creating user name:	trannguyen
#	Creation time:		Tue Feb  8 18:26:14 2022


#	Modifying user name:	trannguyen
#	Modification time:	Tue Feb  8 18:26:14 2022

@<TRIPOS>MOLECULE
CHEMBL323344
 36 37 0 0 0
SMALL
GASTEIGER

@<TRIPOS>ATOM
      1 C           5.7467   32.8677    5.7196 C.ar    1  UNL1        0.0214
      2 C           6.5532   33.4298    4.7620 C.ar    1  UNL1       -0.0050
      3 C           6.0300   33.6081    3.5047 C.ar    1  UNL1       -0.0223
      4 C           6.9742   34.0792    2.4608 C.3     1  UNL1        0.0310
      5 C           4.7071   33.2443    3.1918 C.ar    1  UNL1       -0.0055
      6 C           3.8371   32.6244    4.1027 C.ar    1  UNL1        0.0115
      7 C           2.5433   32.0734    3.5641 C.3     1  UNL1        0.0342
      8 C           4.2977   32.4354    5.4115 C.ar    1  UNL1        0.1311
      9 C           6.7088   32.4703    6.9712 C.3     1  UNL1        0.1241
     10 C           8.3667   31.6093    6.8019 C.3     1  UNL1        0.0148
     11 C           9.6831   32.3506    6.3185 C.3     1  UNL1        0.0009
     12 C          11.0166   32.0552    7.0866 C.3     1  UNL1        0.0000
     13 C          11.0176   31.6594    8.5658 C.3     1  UNL1        0.0000
     14 C           9.9983   30.5352    8.8349 C.3     1  UNL1        0.0000
     15 C           8.9626   30.2609    7.6491 C.3     1  UNL1        0.0009
     16 C           6.3807   32.9689    8.4013 C.2     1  UNL1        0.3205
     17 O           5.7292   32.2646    9.3775 O.2     1  UNL1       -0.2498
     18 O           6.7643   34.1694    8.4983 O.3     1  UNL1       -0.4555
     19 C           7.7740   34.7447    9.4090 C.3     1  UNL1        0.1361
     20 C           7.3355   35.7630   10.4798 C.3     1  UNL1        0.0437
     21 C           8.6682   35.4734    8.4307 C.3     1  UNL1        0.0437
     22 C           9.2841   33.9799   11.3422 C.3     1  UNL1        0.0037
     23 C           8.5599   33.5844   10.0609 C.3     1  UNL1        0.0401
     24 O           3.3154   31.7778    6.2447 O.3     1  UNL1       -0.4735
     25 C           2.3519   32.5340    7.0856 C.3     1  UNL1        0.2344
     26 C           1.7328   31.5030    7.8965 C.3     1  UNL1        0.1564
     27 O           1.4962   30.7884    6.6717 O.3     1  UNL1       -0.3806
     28 H           1.5740   29.8385    6.5412 H       1  UNL1        0.2105
     29 C           2.3779   31.1820    9.2780 C.3     1  UNL1        0.0627
     30 C           3.0207   29.8902    9.5623 C.3     1  UNL1        0.1186
     31 O           4.1672   30.0258   10.3667 O.3     1  UNL1       -0.3840
     32 H           3.8212   30.1838   11.2780 H       1  UNL1        0.2104
     33 C           1.9479   29.0054   10.2076 C.3     1  UNL1        0.0710
     34 C           2.2468   27.7147   10.9974 C.2     1  UNL1        0.0528
     35 O           1.4115   27.3927   11.8937 O.co2   1  UNL1       -0.5491
     36 O           3.3240   27.1485   10.6824 O.co2   1  UNL1       -0.5491
@<TRIPOS>UNITY_ATOM_ATTR
35 1
charge -1
@<TRIPOS>BOND
     1    22    23    1
     2    23    19    1
     3    19    20    1
     4    19    21    1
     5    19    18    1
     6    18    16    1
     7    16    17    2
     8    16     9    1
     9     9     1    1
    10     9    10    1
    11     1     2   ar
    12     1     8   ar
    13     2     3   ar
    14     3     4    1
    15     3     5   ar
    16     5     6   ar
    17     6     7    1
    18     6     8   ar
    19     8    24    1
    20    24    25    1
    21    25    26    1
    22    26    27    1
    23    26    29    1
    24    27    28    1
    25    29    30    1
    26    30    31    1
    27    30    33    1
    28    31    32    1
    29    33    34    1
    30    34    35   ar
    31    34    36   ar
    32    10    11    1
    33    10    15    1
    34    11    12    1
    35    12    13    1
    36    13    14    1
    37    14    15    1
#	Name:			CHEMBL323880
#	Creating user name:	trannguyen
#	Creation time:		Tue Feb  8 18:26:14 2022


#	Modifying user name:	trannguyen
#	Modification time:	Tue Feb  8 18:26:14 2022

@<TRIPOS>MOLECULE
CHEMBL323880
 33 34 0 0 0
SMALL
GASTEIGER

@<TRIPOS>ATOM
      1 C           6.5420   33.1014    8.0807 C.3     1  UNL1        0.1715
      2 C           6.9328   31.8079    8.8041 C.3     1  UNL1        0.0728
      3 C           8.0126   31.0544    8.0108 C.3     1  UNL1        0.1145
      4 O           9.2555   31.7563    8.0960 O.3     1  UNL1       -0.3843
      5 C           7.6706   30.8963    6.5293 C.3     1  UNL1        0.0338
      6 C           7.2136   32.2095    5.8546 C.3     1  UNL1        0.0276
      7 C           6.8918   31.9130    4.4132 C.2     1  UNL1       -0.0308
      8 C           5.6513   31.9441    3.9119 C.2     1  UNL1       -0.0310
      9 C           4.4335   32.2824    4.7351 C.3     1  UNL1        0.0218
     10 C           3.9876   33.6956    4.3318 C.3     1  UNL1        0.0047
     11 C           4.7045   32.1048    6.2680 C.3     1  UNL1        0.0079
     12 C           6.0334   32.8894    6.6291 C.3     1  UNL1        0.0446
     13 H           9.5801   31.6724    9.0095 H       1  UNL1        0.2103
     14 O           5.8185   34.1309    8.8153 O.3     1  UNL1       -0.4522
     15 C           6.2456   34.7741    9.8975 C.2     1  UNL1        0.3163
     16 O           5.5760   34.8847   10.9521 O.2     1  UNL1       -0.2501
     17 C           7.6780   35.2990    9.7882 C.3     1  UNL1        0.0991
     18 C           7.5996   36.7716    9.4134 C.3     1  UNL1        0.0116
     19 C           9.1353   33.6818   11.1980 C.3     1  UNL1        0.0006
     20 C           8.5157   35.0745   11.0665 C.3     1  UNL1        0.0111
     21 C           3.4507   32.4042    7.1120 C.3     1  UNL1        0.0029
     22 C           2.2333   31.4569    6.9253 C.3     1  UNL1        0.0293
     23 C           1.4628   31.1896    8.2405 C.3     1  UNL1        0.1130
     24 O           0.3022   32.0336    8.2301 O.3     1  UNL1       -0.3844
     25 H          -0.4705   31.4510    8.3317 H       1  UNL1        0.2103
     26 C           2.2255   31.4419    9.5525 C.3     1  UNL1        0.0588
     27 C           2.3475   30.2440   10.5072 C.3     1  UNL1        0.1185
     28 O           3.7225   29.8853   10.6998 O.3     1  UNL1       -0.3840
     29 H           4.2351   30.7108   10.7405 H       1  UNL1        0.2104
     30 C           1.6603   28.9649   10.0847 C.3     1  UNL1        0.0710
     31 C           2.0581   27.6668   10.7260 C.2     1  UNL1        0.0528
     32 O           2.8536   26.9173   10.0923 O.co2   1  UNL1       -0.5491
     33 O           1.9668   27.6096   11.9921 O.co2   1  UNL1       -0.5491
@<TRIPOS>UNITY_ATOM_ATTR
32 1
charge -1
@<TRIPOS>BOND
     1    19    20    1
     2    17    18    1
     3    17    15    1
     4    17    20    1
     5    15    16    2
     6    15    14    1
     7     1     2    1
     8     1    12    1
     9     1    14    1
    10     2     3    1
    11     3     5    1
    12     3     4    1
    13     4    13    1
    14     5     6    1
    15     6     7    1
    16     6    12    1
    17     7     8    2
    18     8     9    1
    19     9    10    1
    20     9    11    1
    21    11    21    1
    22    11    12    1
    23    21    22    1
    24    23    24    1
    25    23    26    1
    26    23    22    1
    27    24    25    1
    28    27    28    1
    29    27    30    1
    30    27    26    1
    31    28    29    1
    32    30    31    1
    33    31    32   ar
    34    31    33   ar
#	Name:			CHEMBL325372
#	Creating user name:	trannguyen
#	Creation time:		Tue Feb  8 18:26:14 2022


#	Modifying user name:	trannguyen
#	Modification time:	Tue Feb  8 18:26:14 2022

@<TRIPOS>MOLECULE
CHEMBL325372
 12 12 0 0 0
SMALL
GASTEIGER

@<TRIPOS>ATOM
      1 C           1.6917   29.0712   10.4145 C.ar    1  UNL1        0.0758
      2 C           2.4447   30.2519   10.3199 C.ar    1  UNL1        0.0095
      3 C           1.9312   31.3653    9.6487 C.ar    1  UNL1        0.0368
      4 C           0.6653   31.2950    9.0760 C.ar    1  UNL1        0.1337
      5 O           0.1309   32.3548    8.4066 O.3     1  UNL1       -0.5055
      6 C          -0.0965   30.1355    9.1672 C.ar    1  UNL1        0.0368
      7 C           0.4149   29.0219    9.8375 C.ar    1  UNL1        0.0095
      8 H           0.7680   33.0878    8.4202 H       1  UNL1        0.2922
      9 C           2.2101   27.8508   11.0919 C.2     1  UNL1        0.3413
     10 O           1.9862   27.5776   12.2613 O.2     1  UNL1       -0.2449
     11 C           4.2431   27.5807    9.9558 C.3     1  UNL1        0.2560
     12 O           2.9257   27.0968   10.2211 O.3     1  UNL1       -0.4413
@<TRIPOS>BOND
     1    11    12    1
     2    12     9    1
     3     9    10    2
     4     9     1    1
     5     1     2   ar
     6     1     7   ar
     7     2     3   ar
     8     3     4   ar
     9     4     5    1
    10     4     6   ar
    11     5     8    1
    12     6     7   ar
#	Name:			CHEMBL32749
#	Creating user name:	trannguyen
#	Creation time:		Tue Feb  8 18:26:14 2022


#	Modifying user name:	trannguyen
#	Modification time:	Tue Feb  8 18:26:14 2022

@<TRIPOS>MOLECULE
CHEMBL32749
 16 16 0 0 0
SMALL
GASTEIGER

@<TRIPOS>ATOM
      1 C           2.9700   29.2228   10.5867 C.ar    1  UNL1        0.1721
      2 C           2.7719   30.1487    9.5528 C.ar    1  UNL1        0.0400
      3 C           1.5142   30.3466    8.9637 C.ar    1  UNL1        0.0034
      4 C           0.4278   29.6210    9.4596 C.ar    1  UNL1        0.0033
      5 C           0.6065   28.6964   10.4939 C.ar    1  UNL1        0.0398
      6 C           1.8731   28.4933   11.0513 C.ar    1  UNL1        0.1677
      7 O           2.0003   27.5713   12.0520 O.3     1  UNL1       -0.5029
      8 H           1.1300   27.1911   12.2519 H       1  UNL1        0.2923
      9 C           5.2526   29.8255   10.2150 C.3     1  UNL1        0.2526
     10 O           4.2723   29.1711   11.0062 O.3     1  UNL1       -0.4684
     11 C           1.3099   31.3199    7.8790 C.2     1  UNL1        0.0067
     12 C           1.9979   31.2789    6.7263 C.2     1  UNL1        0.0817
     13 C           1.7673   32.2837    5.6728 C.2     1  UNL1        0.3382
     14 O           1.0244   32.1334    4.7166 O.2     1  UNL1       -0.2451
     15 O           2.4775   33.4092    5.8887 O.3     1  UNL1       -0.4771
     16 H           3.0198   33.4151    6.6993 H       1  UNL1        0.2954
@<TRIPOS>BOND
     1     9    10    1
     2    10     1    1
     3     1     2   ar
     4     1     6   ar
     5     2     3   ar
     6     3    11    1
     7     3     4   ar
     8    11    12    2
     9    12    13    1
    10    13    14    2
    11    13    15    1
    12    15    16    1
    13     4     5   ar
    14     5     6   ar
    15     6     7    1
    16     7     8    1
#	Name:			CHEMBL333306
#	Creating user name:	trannguyen
#	Creation time:		Tue Feb  8 18:26:14 2022


#	Modifying user name:	trannguyen
#	Modification time:	Tue Feb  8 18:26:14 2022

@<TRIPOS>MOLECULE
CHEMBL333306
 15 15 0 0 0
SMALL
GASTEIGER

@<TRIPOS>ATOM
      1 C           2.2408   31.1348    8.2198 C.ar    1  UNL1        0.0369
      2 C           3.3017   31.2594    9.1321 C.ar    1  UNL1        0.0430
      3 C           4.4485   32.0110    8.8451 C.ar    1  UNL1        0.1726
      4 C           4.5693   32.6344    7.5987 C.ar    1  UNL1        0.1754
      5 C           3.5305   32.4900    6.6681 C.ar    1  UNL1        0.0769
      6 C           2.3823   31.7337    6.9556 C.ar    1  UNL1        0.1419
      7 C          -0.2088   28.7427   10.0768 C.3     1  UNL1        0.0307
      8 C           0.9338   29.6431    9.7320 C.2     1  UNL1       -0.0257
      9 C           1.0671   30.3030    8.5734 C.2     1  UNL1       -0.0015
     10 O           5.3609   32.0058    9.8674 O.3     1  UNL1       -0.4684
     11 C           6.2229   30.8792    9.9512 C.3     1  UNL1        0.2526
     12 O           5.7413   33.2781    7.2947 O.3     1  UNL1       -0.4683
     13 C           6.4572   32.7972    6.1614 C.3     1  UNL1        0.2526
     14 O           1.3555   31.5782    6.0524 O.3     1  UNL1       -0.4713
     15 C           1.5099   32.2583    4.8081 C.3     1  UNL1        0.2525
@<TRIPOS>BOND
     1     7     8    1
     2     8     9    2
     3     9     1    1
     4     1     2   ar
     5     1     6   ar
     6     2     3   ar
     7     3    10    1
     8     3     4   ar
     9    10    11    1
    10     4    12    1
    11     4     5   ar
    12    12    13    1
    13     5     6   ar
    14     6    14    1
    15    14    15    1
#	Name:			CHEMBL334255
#	Creating user name:	trannguyen
#	Creation time:		Tue Feb  8 18:26:14 2022


#	Modifying user name:	trannguyen
#	Modification time:	Tue Feb  8 18:26:14 2022

@<TRIPOS>MOLECULE
CHEMBL334255
 22 22 0 0 0
SMALL
GASTEIGER

@<TRIPOS>ATOM
      1 C           3.7681   33.1538    8.4502 C.3     1  UNL1        0.0000
      2 C           5.2161   32.6425    8.3694 C.3     1  UNL1        0.0000
      3 C           6.2529   33.4092    9.1971 C.3     1  UNL1        0.0000
      4 C           6.8875   32.5569   10.3125 C.3     1  UNL1        0.0000
      5 C           7.0915   31.0661   10.0036 C.3     1  UNL1        0.0000
      6 C           6.0713   30.1646   10.7320 C.3     1  UNL1        0.0000
      7 C           5.0074   29.5657    9.7913 C.3     1  UNL1        0.0000
      8 C           4.4412   28.2344   10.3031 C.3     1  UNL1        0.0000
      9 C           2.9993   27.9378    9.8530 C.3     1  UNL1        0.0000
     10 C           0.6627   28.8323   10.3981 C.3     1  UNL1        0.0000
     11 C           2.0421   29.1341    9.8314 C.3     1  UNL1        0.0000
     12 C           2.9506   33.0434    7.1563 C.3     1  UNL1        0.0000
     13 C           2.0693   31.7826    7.1533 C.3     1  UNL1        0.0001
     14 C           2.0891   31.0523    5.8009 C.3     1  UNL1        0.0018
     15 C           1.6436   31.9857    4.6698 C.3     1  UNL1        0.0214
     16 C           2.5087   31.8649    3.4092 C.3     1  UNL1        0.0911
     17 N           3.9060   32.2690    3.7375 N.pl3   1  UNL1       -0.3026
     18 C           4.2070   33.5843    3.9145 C.3     1  UNL1        0.1175
     19 C           5.5213   33.9797    4.1376 C.2     1  UNL1       -0.0047
     20 C           6.5259   33.0278    4.2147 C.2     1  UNL1       -0.0016
     21 C           6.1921   31.6817    4.1103 C.2     1  UNL1        0.0155
     22 C           4.8605   31.3314    3.9021 C.2     1  UNL1        0.0616
@<TRIPOS>BOND
     1    10    11    1
     2    11     9    1
     3     9     8    1
     4     8     7    1
     5     7     6    1
     6     6     5    1
     7     5     4    1
     8     4     3    1
     9     3     2    1
    10     2     1    1
    11     1    12    1
    12    12    13    1
    13    13    14    1
    14    14    15    1
    15    15    16    1
    16    16    17    1
    17    17    18    1
    18    17    22    1
    19    18    19    1
    20    19    20    2
    21    20    21    1
    22    21    22    2
#	Name:			CHEMBL3344536
#	Creating user name:	trannguyen
#	Creation time:		Tue Feb  8 18:26:14 2022


#	Modifying user name:	trannguyen
#	Modification time:	Tue Feb  8 18:26:14 2022

@<TRIPOS>MOLECULE
CHEMBL3344536
 16 16 0 0 0
SMALL
GASTEIGER

@<TRIPOS>ATOM
      1 C           2.9844   31.7934    8.0248 C.ar    1  UNL1        0.0716
      2 C           3.9674   31.1747    8.8137 C.ar    1  UNL1        0.0459
      3 C           3.6074   30.3670    9.8962 C.ar    1  UNL1        0.1727
      4 C           2.2480   30.1921   10.2094 C.ar    1  UNL1        0.1754
      5 C           1.2695   30.8083    9.4203 C.ar    1  UNL1        0.0767
      6 C           1.6368   31.5949    8.3258 C.ar    1  UNL1        0.1396
      7 O           0.6556   32.1428    7.5483 O.3     1  UNL1       -0.5053
      8 H          -0.2165   31.9046    7.9076 H       1  UNL1        0.2922
      9 C           3.4661   32.6290    6.8915 C.2     1  UNL1        0.1761
     10 O           3.3817   33.8487    6.9908 O.2     1  UNL1       -0.2912
     11 C           2.8499   31.2920    4.8756 C.3     1  UNL1        0.0086
     12 C           3.9903   31.9509    5.6377 C.3     1  UNL1        0.0693
     13 O           4.5173   29.7307   10.7019 O.3     1  UNL1       -0.4684
     14 C           5.8885   30.0446   10.4769 C.3     1  UNL1        0.2526
     15 O           1.9576   29.4318   11.3154 O.3     1  UNL1       -0.4683
     16 C           1.0918   28.3227   11.1058 C.3     1  UNL1        0.2526
@<TRIPOS>BOND
     1    11    12    1
     2    12     9    1
     3     9    10    2
     4     9     1    1
     5     1     2   ar
     6     1     6   ar
     7     2     3   ar
     8     3    13    1
     9     3     4   ar
    10    13    14    1
    11     4    15    1
    12     4     5   ar
    13    15    16    1
    14     5     6   ar
    15     6     7    1
    16     7     8    1
#	Name:			CHEMBL3344540
#	Creating user name:	trannguyen
#	Creation time:		Tue Feb  8 18:26:14 2022


#	Modifying user name:	trannguyen
#	Modification time:	Tue Feb  8 18:26:14 2022

@<TRIPOS>MOLECULE
CHEMBL3344540
 21 21 0 0 0
SMALL
GASTEIGER

@<TRIPOS>ATOM
      1 C           3.4604   32.2852    7.1485 C.ar    1  UNL1        0.0716
      2 C           4.4470   31.9791    8.1067 C.ar    1  UNL1        0.0459
      3 C           4.1259   31.3188    9.2985 C.ar    1  UNL1        0.1727
      4 C           2.7843   30.9982    9.5574 C.ar    1  UNL1        0.1760
      5 C           1.7924   31.3801    8.6463 C.ar    1  UNL1        0.0767
      6 C           2.1297   31.9766    7.4349 C.ar    1  UNL1        0.1396
      7 O           1.1189   32.2177    6.5494 O.3     1  UNL1       -0.5053
      8 H           0.3199   31.7309    6.8158 H       1  UNL1        0.2922
      9 C           3.9267   32.8946    5.8630 C.2     1  UNL1        0.1761
     10 O           3.2027   33.7232    5.3094 O.2     1  UNL1       -0.2912
     11 C           5.2781   32.5051    5.2890 C.3     1  UNL1        0.0693
     12 C           6.3198   30.9688    3.5811 C.3     1  UNL1        0.0005
     13 C           5.1574   31.8967    3.8945 C.3     1  UNL1        0.0081
     14 O           5.0576   30.9803   10.2474 O.3     1  UNL1       -0.4684
     15 C           6.4145   30.9436    9.8068 C.3     1  UNL1        0.2526
     16 O           2.4957   30.2761   10.6933 O.3     1  UNL1       -0.4606
     17 C           1.6324   29.1665   10.4710 C.3     1  UNL1        0.3142
     18 C           2.1238   27.8784   11.1060 C.2     1  UNL1        0.3621
     19 O           2.0157   27.5760   12.2766 O.2     1  UNL1       -0.2459
     20 O           2.7959   27.1520   10.1636 O.3     1  UNL1       -0.4418
     21 C           4.1335   27.5931    9.9424 C.3     1  UNL1        0.2557
@<TRIPOS>BOND
     1    12    13    1
     2    13    11    1
     3    11     9    1
     4     9    10    2
     5     9     1    1
     6     1     2   ar
     7     1     6   ar
     8     2     3   ar
     9     3    14    1
    10     3     4   ar
    11    14    15    1
    12     4    16    1
    13     4     5   ar
    14    16    17    1
    15    17    18    1
    16    18    19    2
    17    18    20    1
    18    20    21    1
    19     5     6   ar
    20     6     7    1
    21     7     8    1
#	Name:			CHEMBL3350037
#	Creating user name:	trannguyen
#	Creation time:		Tue Feb  8 18:26:14 2022


#	Modifying user name:	trannguyen
#	Modification time:	Tue Feb  8 18:26:14 2022

@<TRIPOS>MOLECULE
CHEMBL3350037
 86 90 0 0 0
SMALL
GASTEIGER

@<TRIPOS>ATOM
      1 CA         11.9235   34.0225   -5.4897 C.3     7  CYS7        0.1603
      2 CB         11.7597   33.0809   -4.2809 C.3     7  CYS7        0.0976
      3 SG         13.1934   32.9031   -3.1375 S.3     7  CYS7       -0.0798
      4 SG         13.9787   34.7889   -2.9032 S.3     2  CYS2       -0.0798
      5 CB         13.3035   35.4301   -1.3144 C.3     2  CYS2        0.0976
      6 CA         12.0129   36.2537   -1.4355 C.3     2  CYS2        0.1603
      7 C          12.2585   37.4939   -2.3336 C.2     2  CYS2        0.2416
      8 O          13.2587   38.1993   -2.2688 O.2     2  CYS2       -0.2733
      9 N          11.2273   37.7718   -3.1925 N.am    3  PHE3       -0.2967
     10 CA         11.2493   38.8333   -4.2096 C.3     3  PHE3        0.1530
     11 C           9.7445   39.0140   -4.4753 C.2     3  PHE3        0.2410
     12 O           9.0238   38.0243   -4.6166 O.2     3  PHE3       -0.2733
     13 N           9.2502   40.2976   -4.4828 N.am    4  TRP4       -0.2967
     14 CA          7.8289   40.5809   -4.7980 C.3     4  TRP4        0.1530
     15 C           7.6791   40.2495   -6.3045 C.2     4  TRP4        0.2410
     16 O           8.2518   40.9216   -7.1641 O.2     4  TRP4       -0.2733
     17 N           7.0876   39.0464   -6.6045 N.am    5  LYS5       -0.2970
     18 CA          7.6377   38.1727   -7.6323 C.3     5  LYS5        0.1486
     19 C           7.6239   36.7729   -6.9800 C.2     5  LYS5        0.2407
     20 O           6.8396   36.5433   -6.0582 O.2     5  LYS5       -0.2733
     21 N           8.4486   35.8043   -7.5009 N.am    6  THR6       -0.2951
     22 CA          8.3873   34.3682   -7.1358 C.3     6  THR6        0.1757
     23 C           9.4050   33.9051   -6.0549 C.2     6  THR6        0.2431
     24 O           9.1621   33.0138   -5.2258 O.2     6  THR6       -0.2732
     25 N          10.6910   34.3658   -6.2502 N.am    7  CYS7       -0.2962
     26 H          10.3428   37.2833   -3.0541 H       3  PHE3        0.1499
     27 H           9.9075   41.0364   -4.7106 H       4  TRP4        0.1499
     28 H           6.7028   38.5213   -5.8197 H       5  LYS5        0.1499
     29 H           9.1346   36.0878   -8.1879 H       6  THR6        0.1499
     30 H          10.8339   35.0286   -7.0020 H       7  CYS7        0.1499
     31 CB          6.9701   33.7251   -6.9843 C.3     6  THR6        0.1373
     32 CG2         6.9258   32.3159   -7.5732 C.3     6  THR6        0.0340
     33 OG1         5.8789   34.4651   -7.5175 O.3     6  THR6       -0.3823
     34 HG1         6.1008   34.7456   -8.4316 H       6  THR6        0.2104
     35 N          12.7202   32.3575   -7.1771 N.am    8  THR8       -0.3001
     36 C          13.0084   33.5122   -6.4757 C.2     7  CYS7        0.2413
     37 O          14.0897   34.0836   -6.5968 O.2     7  CYS7       -0.2733
     38 H          11.8816   31.8344   -6.9512 H       8  THR8        0.1496
     39 CA         13.7125   31.7124   -8.0748 C.3     8  THR8        0.1279
     40 CG2        12.1249   32.5819   -9.9404 C.3     8  THR8        0.0336
     41 CB         13.5604   32.2702   -9.5164 C.3     8  THR8        0.1309
     42 OG1        14.3692   33.4428   -9.6728 O.3     8  THR8       -0.3827
     43 HG1        14.1584   33.8249  -10.5441 H       8  THR8        0.2104
     44 C          13.6075   30.1734   -7.9810 C.3     8  THR8        0.1590
     45 O          14.8614   29.5145   -8.1268 O.3     8  THR8       -0.3802
     46 H          14.9095   29.1953   -9.0457 H       8  THR8        0.2105
     47 N          10.8438   35.4760   -1.8789 N.am    2  CYS2       -0.2965
     48 C           9.5936   35.5794   -1.3013 C.2     1  PHE1        0.2372
     49 O           9.3768   36.3116   -0.3325 O.2     1  PHE1       -0.2737
     50 H          10.9742   34.7837   -2.6039 H       2  CYS2        0.1499
     51 CA          8.4761   34.7828   -2.0383 C.3     1  PHE1        0.1327
     52 N           8.2414   35.4565   -3.3352 N.3     1  PHE1       -0.3148
     53 H1          7.6801   34.8309   -3.9197 H       1  PHE1        0.1192
     54 H2          7.6495   36.2717   -3.1684 H       1  PHE1        0.1192
     55 CB          7.2194   34.6815   -1.1480 C.3     1  PHE1        0.0512
     56 CG          7.2783   33.6815   -0.0092 C.ar    1  PHE1       -0.0203
     57 CD1         7.8633   32.4195   -0.1887 C.ar    1  PHE1       -0.0042
     58 CE1         7.9778   31.5268    0.8827 C.ar    1  PHE1       -0.0003
     59 CZ          7.4978   31.8776    2.1425 C.ar    1  PHE1       -0.0000
     60 CE2         6.9013   33.1217    2.3318 C.ar    1  PHE1       -0.0003
     61 CD2         6.7937   34.0185    1.2641 C.ar    1  PHE1       -0.0042
     62 CB         12.0107   38.3364   -5.4589 C.3     3  PHE3        0.0553
     63 CG         11.7511   39.0909   -6.7414 C.ar    3  PHE3       -0.0200
     64 CD1        11.9970   40.4524   -6.9017 C.ar    3  PHE3       -0.0042
     65 CE1        11.7040   41.0839   -8.1204 C.ar    3  PHE3       -0.0003
     66 CZ         11.1241   40.3732   -9.1725 C.ar    3  PHE3       -0.0000
     67 CE2        10.9035   39.0126   -9.0325 C.ar    3  PHE3       -0.0003
     68 CD2        11.2689   38.3877   -7.8422 C.ar    3  PHE3       -0.0042
     69 CB          6.9100   38.2842   -8.9659 C.3     5  LYS5        0.0290
     70 CG          5.4098   38.5555   -8.8000 C.3     5  LYS5        0.0036
     71 CD          5.0505   39.9948   -9.1553 C.3     5  LYS5        0.0169
     72 CE          4.2908   40.6673   -8.0117 C.3     5  LYS5        0.0651
     73 NZ          3.7633   39.6611   -7.1034 N.3     5  LYS5       -0.3211
     74 HZ1         3.1174   39.0493   -7.6017 H       5  LYS5        0.1189
     75 HZ2         3.2204   40.1107   -6.3676 H       5  LYS5        0.1189
     76 CB          6.8153   39.9506   -3.8153 C.3     4  TRP4        0.0569
     77 CG          6.6712   40.6335   -2.4760 C.ar    4  TRP4       -0.0017
     78 CD1         5.6843   41.5112   -2.0664 C.ar    4  TRP4        0.0681
     79 NE1         5.8989   41.8331   -0.7535 N.ar    4  TRP4       -0.3523
     80 HE1         5.3093   42.4366   -0.1977 H       4  TRP4        0.1660
     81 CE2         7.0202   41.1968   -0.2837 C.ar    4  TRP4        0.0563
     82 CZ2         7.5989   41.2267    0.9912 C.ar    4  TRP4        0.0170
     83 CH2         8.7482   40.4618    1.1998 C.ar    4  TRP4        0.0015
     84 CZ3         9.2959   39.7022    0.1693 C.ar    4  TRP4        0.0001
     85 CE3         8.7025   39.6834   -1.1014 C.ar    4  TRP4        0.0012
     86 CD2         7.5366   40.4439   -1.3392 C.ar    4  TRP4        0.0131
@<TRIPOS>BOND
     1    40    41    1
     2    41    42    1
     3    42    43    1
     4    39    44    1
     5    39    35    1
     6    39    41    1
     7    44    45    1
     8    45    46    1
     9    35    36   am
    10    35    38    1
    11    36    37    2
    12    36     1    1
    13     1     2    1
    14     1    25    1
    15     2     3    1
    16     3     4    1
    17     4     5    1
    18     5     6    1
    19     6     7    1
    20     6    47    1
    21    47    48   am
    22    47    50    1
    23    48    49    2
    24    51    52    1
    25    51    55    1
    26    51    48    1
    27    52    53    1
    28    52    54    1
    29    55    56    1
    30    56    57   ar
    31    56    61   ar
    32    57    58   ar
    33    58    59   ar
    34    59    60   ar
    35    60    61   ar
    36     7     8    2
    37     7     9   am
    38     9    10    1
    39     9    26    1
    40    10    62    1
    41    10    11    1
    42    62    63    1
    43    63    64   ar
    44    63    68   ar
    45    64    65   ar
    46    65    66   ar
    47    66    67   ar
    48    67    68   ar
    49    11    12    2
    50    11    13   am
    51    13    14    1
    52    13    27    1
    53    14    15    1
    54    14    76    1
    55    76    77    1
    56    77    78   ar
    57    77    86   ar
    58    78    79   ar
    59    79    80    1
    60    79    81   ar
    61    81    82   ar
    62    81    86   ar
    63    82    83   ar
    64    83    84   ar
    65    84    85   ar
    66    85    86   ar
    67    15    16    2
    68    15    17   am
    69    17    18    1
    70    17    28    1
    71    18    69    1
    72    18    19    1
    73    69    70    1
    74    70    71    1
    75    71    72    1
    76    72    73    1
    77    73    74    1
    78    73    75    1
    79    19    20    2
    80    19    21   am
    81    21    22    1
    82    21    29    1
    83    22    31    1
    84    22    23    1
    85    31    32    1
    86    31    33    1
    87    33    34    1
    88    23    24    2
    89    23    25   am
    90    25    30    1
#	Name:			CHEMBL338790
#	Creating user name:	trannguyen
#	Creation time:		Tue Feb  8 18:26:14 2022


#	Modifying user name:	trannguyen
#	Modification time:	Tue Feb  8 18:26:14 2022

@<TRIPOS>MOLECULE
CHEMBL338790
 19 21 0 0 0
SMALL
GASTEIGER

@<TRIPOS>ATOM
      1 N           2.2492   27.1873   11.6784 N.pl3   1  UNL1       -0.3570
      2 C           2.0251   28.2660   10.8000 C.ar    1  UNL1        0.0415
      3 C           0.6938   28.6330   10.5550 C.ar    1  UNL1        0.0142
      4 C           0.3878   29.7721    9.8177 C.ar    1  UNL1        0.0058
      5 C           1.4181   30.5903    9.3544 C.ar    1  UNL1        0.0540
      6 C           2.7631   30.2828    9.6138 C.ar    1  UNL1        0.0099
      7 C           3.7980   31.1229    9.1623 C.ar    1  UNL1        0.0539
      8 C           5.1397   30.8296    9.4207 C.ar    1  UNL1        0.0045
      9 C           5.4637   29.6917   10.1452 C.ar    1  UNL1        0.0002
     10 C           4.4489   28.8517   10.6102 C.ar    1  UNL1        0.0012
     11 C           3.0810   29.1137   10.3559 C.ar    1  UNL1        0.0132
     12 C           3.4663   32.3508    8.4035 C.2     1  UNL1        0.2517
     13 O           4.3356   33.1100    7.9899 O.2     1  UNL1       -0.2697
     14 N           2.1328   32.5940    8.1893 N.am    1  UNL1       -0.2483
     15 C           1.0765   31.8177    8.5986 C.2     1  UNL1        0.2517
     16 O          -0.0831   32.1243    8.3544 O.2     1  UNL1       -0.2697
     17 H           1.4912   26.5116   11.7034 H       1  UNL1        0.1424
     18 H           3.1481   26.7324   11.5740 H       1  UNL1        0.1424
     19 H           1.9034   33.4338    7.6774 H       1  UNL1        0.1581
@<TRIPOS>BOND
     1     1     2    1
     2     1    17    1
     3     1    18    1
     4     2     3   ar
     5     2    11   ar
     6     3     4   ar
     7     4     5   ar
     8     5     6   ar
     9     5    15    1
    10     6     7   ar
    11     6    11   ar
    12     7     8   ar
    13     7    12    1
    14     8     9   ar
    15     9    10   ar
    16    10    11   ar
    17    12    13    2
    18    12    14   am
    19    14    15   am
    20    14    19    1
    21    15    16    2
#	Name:			CHEMBL33
#	Creating user name:	trannguyen
#	Creation time:		Tue Feb  8 18:26:14 2022


#	Modifying user name:	trannguyen
#	Modification time:	Tue Feb  8 18:26:14 2022

@<TRIPOS>MOLECULE
CHEMBL33
 27 30 0 0 0
SMALL
GASTEIGER

@<TRIPOS>ATOM
      1 C           1.8278   33.3132   10.2165 C.3     1  UNL1        0.0284
      2 C           2.1246   32.4698    8.9746 C.3     1  UNL1        0.1292
      3 C           3.0023   33.2143    7.9642 C.3     1  UNL1        0.2278
      4 O           4.3059   33.4878    8.4823 O.3     1  UNL1       -0.4707
      5 C           4.9398   32.3422    8.9322 C.ar    1  UNL1        0.1697
      6 C           6.3611   32.3465    8.9284 C.ar    1  UNL1        0.1116
      7 C           6.9960   31.1726    9.3798 C.ar    1  UNL1        0.1565
      8 F           8.3342   31.0851    9.4232 F       1  UNL1       -0.2028
      9 C           6.2835   30.0636    9.8260 C.ar    1  UNL1        0.0358
     10 C           4.8910   30.0949    9.8232 C.ar    1  UNL1        0.0603
     11 C           4.1331   28.9168   10.3072 C.ar    1  UNL1        0.2048
     12 O           4.7064   27.9173   10.7373 O.2     1  UNL1       -0.2862
     13 C           2.6553   28.9627   10.2674 C.ar    1  UNL1        0.1314
     14 C           2.0943   30.0927    9.8114 C.ar    1  UNL1        0.0857
     15 N           2.7778   31.2111    9.3702 N.ar    1  UNL1       -0.3215
     16 C           4.1921   31.2265    9.3751 C.ar    1  UNL1        0.0988
     17 N           7.0589   33.4811    8.4590 N.pl3   1  UNL1       -0.3005
     18 C           7.9575   33.3121    7.2999 C.3     1  UNL1        0.1083
     19 C           8.4369   34.6940    6.7917 C.3     1  UNL1        0.0938
     20 N           9.0848   35.5472    7.8157 N.3     1  UNL1       -0.2686
     21 C          10.4097   35.0456    8.1744 C.3     1  UNL1        0.0897
     22 C           8.1948   35.6304    8.9978 C.3     1  UNL1        0.0938
     23 C           7.6699   34.2782    9.5461 C.3     1  UNL1        0.1083
     24 C           1.7879   27.8494   10.7053 C.2     1  UNL1        0.3427
     25 O           0.7468   28.0134   11.3229 O.2     1  UNL1       -0.2449
     26 O           2.2368   26.6218   10.3641 O.3     1  UNL1       -0.4770
     27 H           3.0948   26.6277    9.8733 H       1  UNL1        0.2954
@<TRIPOS>BOND
     1     2     3    1
     2     2    15    1
     3     2     1    1
     4     3     4    1
     5     4     5    1
     6     5     6   ar
     7     5    16   ar
     8     6    17    1
     9     6     7   ar
    10    17    18    1
    11    17    23    1
    12    18    19    1
    13    19    20    1
    14    20    21    1
    15    20    22    1
    16    22    23    1
    17     7     8    1
    18     7     9   ar
    19     9    10   ar
    20    10    11   ar
    21    10    16   ar
    22    11    12    2
    23    11    13   ar
    24    13    24    1
    25    13    14   ar
    26    24    25    2
    27    24    26    1
    28    26    27    1
    29    14    15   ar
    30    15    16   ar
#	Name:			CHEMBL340978
#	Creating user name:	trannguyen
#	Creation time:		Tue Feb  8 18:26:14 2022


#	Modifying user name:	trannguyen
#	Modification time:	Tue Feb  8 18:26:14 2022

@<TRIPOS>MOLECULE
CHEMBL340978
 22 24 0 0 0
SMALL
GASTEIGER

@<TRIPOS>ATOM
      1 C           2.7085   29.9474    9.8281 C.ar    1  UNL1       -0.0103
      2 C           3.9461   30.4157    9.3388 C.ar    1  UNL1       -0.0005
      3 C           4.2011   31.7792    9.1497 C.ar    1  UNL1        0.0388
      4 C           3.1636   32.6363    9.4833 C.ar    1  UNL1        0.1647
      5 O           3.1662   33.9937    9.4068 O.2     1  UNL1       -0.4346
      6 C           1.9203   34.3588    9.8539 C.ar    1  UNL1        0.2297
      7 N           1.1445   33.3432   10.1975 N.ar    1  UNL1       -0.2083
      8 C           1.9298   32.2397    9.9650 C.ar    1  UNL1        0.1186
      9 C           1.6827   30.8693   10.1411 C.ar    1  UNL1        0.0186
     10 C           1.6506   35.7957    9.8847 C.ar    1  UNL1        0.0536
     11 C           2.3259   36.6627    9.0119 C.ar    1  UNL1        0.0055
     12 C           2.0764   38.0403    9.0370 C.ar    1  UNL1        0.0115
     13 C           1.1466   38.5612    9.9346 C.ar    1  UNL1        0.0577
     14 CL          0.8392   40.2529    9.9690 Cl      1  UNL1       -0.0822
     15 C           0.4636   37.7182   10.8059 C.ar    1  UNL1        0.0115
     16 C           0.7157   36.3436   10.7802 C.ar    1  UNL1        0.0055
     17 C           3.7974   27.6853   10.1027 C.3     1  UNL1        0.0164
     18 C           2.4749   28.4560   10.0399 C.3     1  UNL1        0.1211
     19 C           1.6217   28.1692   11.2743 C.2     1  UNL1        0.3174
     20 O           2.0582   28.0475   12.4115 O.2     1  UNL1       -0.2499
     21 O           0.3039   28.0099   11.0028 O.3     1  UNL1       -0.4800
     22 H           0.0711   28.1516   10.0650 H       1  UNL1        0.2951
@<TRIPOS>BOND
     1    17    18    1
     2    18    19    1
     3    18     1    1
     4    19    20    2
     5    19    21    1
     6    21    22    1
     7     1     2   ar
     8     1     9   ar
     9     2     3   ar
    10     3     4   ar
    11     4     5   ar
    12     4     8   ar
    13     5     6   ar
    14     6    10    1
    15     6     7   ar
    16    10    11   ar
    17    10    16   ar
    18    11    12   ar
    19    12    13   ar
    20    13    14    1
    21    13    15   ar
    22    15    16   ar
    23     7     8   ar
    24     8     9   ar
#	Name:			CHEMBL34139
#	Creating user name:	trannguyen
#	Creation time:		Tue Feb  8 18:26:14 2022


#	Modifying user name:	trannguyen
#	Modification time:	Tue Feb  8 18:26:14 2022

@<TRIPOS>MOLECULE
CHEMBL34139
 23 24 0 0 0
SMALL
GASTEIGER

@<TRIPOS>ATOM
      1 C           2.8154   31.9613    8.0382 C.3     1  UNL1        0.1517
      2 O           1.4854   32.5206    7.8769 O.3     1  UNL1       -0.3789
      3 H           1.4447   33.4124    8.2881 H       1  UNL1        0.2108
      4 C           2.6163   30.7091    8.9115 C.ar    1  UNL1        0.0328
      5 C           1.3229   30.2205    9.2167 C.ar    1  UNL1        0.0026
      6 C           1.1277   29.0660    9.9799 C.ar    1  UNL1        0.0295
      7 C           2.2251   28.4049   10.5028 C.ar    1  UNL1        0.1424
      8 F           2.0390   27.3225   11.2690 F       1  UNL1       -0.2041
      9 C           3.5089   28.8643   10.2553 C.ar    1  UNL1        0.0590
     10 C           3.6928   29.9947    9.4568 C.ar    1  UNL1        0.1406
     11 F           4.9475   30.4101    9.2395 F       1  UNL1       -0.2043
     12 C           2.3694   31.1143    5.5688 C.3     1  UNL1        0.0282
     13 C           3.3556   31.7177    6.5888 C.3     1  UNL1        0.1595
     14 S           4.1088   33.1659    5.8039 S.O2    1  UNL1       -0.0072
     15 C           4.2104   32.8634    4.0567 C.3     1  UNL1        0.1761
     16 O           3.1364   34.2572    5.9535 O.2     1  UNL1       -0.1729
     17 O           5.4391   33.3360    6.3144 O.2     1  UNL1       -0.1729
     18 C           3.6793   33.0254    8.8159 C.3     1  UNL1        0.1619
     19 N           2.9076   34.0720    9.4680 N.ar    1  UNL1       -0.2273
     20 C           2.9941   35.4172    9.2834 C.ar    1  UNL1        0.1973
     21 N           2.0383   36.0140    9.9551 N.ar    1  UNL1       -0.2007
     22 C           1.4158   34.9795   10.5920 C.ar    1  UNL1        0.2210
     23 N           1.9335   33.7679   10.3489 N.ar    1  UNL1       -0.1451
@<TRIPOS>BOND
     1    13    14    1
     2    13    12    1
     3     1    18    1
     4     1     4    1
     5     1     2    1
     6     1    13    1
     7     2     3    1
     8    18    19    1
     9    19    20   ar
    10    19    23   ar
    11    20    21   ar
    12    21    22   ar
    13    22    23   ar
    14     4     5   ar
    15     4    10   ar
    16     5     6   ar
    17     6     7   ar
    18     7     8    1
    19     7     9   ar
    20     9    10   ar
    21    10    11    1
    22    14    15    1
    23    14    16    2
    24    14    17    2
#	Name:			CHEMBL34259
#	Creating user name:	trannguyen
#	Creation time:		Tue Feb  8 18:26:14 2022


#	Modifying user name:	trannguyen
#	Modification time:	Tue Feb  8 18:26:14 2022

@<TRIPOS>MOLECULE
CHEMBL34259
 40 42 0 0 0
SMALL
GASTEIGER

@<TRIPOS>ATOM
      1 C           6.3175   33.3884    4.5987 C.ar    0  UNK0        0.0482
      2 C           6.3656   32.9690    5.9395 C.ar    0  UNK0        0.0147
      3 C           5.2336   32.4630    6.6081 C.ar    0  UNK0        0.0058
      4 C           4.0028   32.3563    5.9540 C.ar    0  UNK0        0.0534
      5 C           3.9186   32.8112    4.6428 C.ar    0  UNK0        0.0058
      6 C           5.0546   33.3008    3.9845 C.ar    0  UNK0        0.0147
      7 C           2.8526   31.7172    6.6713 C.2     0  UNK0        0.2462
      8 O           1.7679   31.6073    6.1300 O.2     0  UNK0       -0.2701
      9 N           3.0687   31.3104    7.9781 N.am    1  GLU1       -0.2932
     10 H           3.9691   31.4209    8.4212 H       1  GLU1        0.1502
     11 CA          2.0320   30.6516    8.7879 C.3     1  GLU1        0.1720
     12 C           1.1573   31.7459    9.4229 C.2     1  GLU1        0.3318
     13 O           1.4039   32.3065   10.4681 O.2     1  GLU1       -0.2485
     14 OXT         0.0212   32.0085    8.7252 O.3     1  GLU1       -0.4791
     15 HXT        -0.0707   31.3797    7.9870 H       1  GLU1        0.2951
     16 CB          2.6323   29.7555    9.8773 C.3     1  GLU1        0.0427
     17 CG          1.6024   28.8909   10.6140 C.3     1  GLU1        0.1116
     18 CD          2.0995   27.5056   10.9006 C.2     1  GLU1        0.3139
     19 OE1         2.1324   26.9716   12.0069 O.2     1  GLU1       -0.2503
     20 OE2         2.6020   26.8726    9.8249 O.3     1  GLU1       -0.4802
     21 HE2         2.9066   26.0010   10.1687 H       1  GLU1        0.2951
     22 C           8.2919   34.8321    4.5387 C.3     0  UNK0        0.1125
     23 N           7.4706   33.7961    3.8913 N.pl3   0  UNK0       -0.3006
     24 C           8.2204   32.7418    3.1688 C.3     0  UNK0        0.1388
     25 C           7.9882   32.7018    1.6706 C.ar    0  UNK0        0.0982
     26 C           7.8225   31.5134    0.9820 C.ar    0  UNK0        0.1170
     27 N           7.6878   31.4565   -0.3695 N.ar    0  UNK0       -0.2223
     28 C           7.7412   32.6027   -1.0624 C.ar    0  UNK0        0.1857
     29 N           7.5815   32.5450   -2.3832 N.ar    0  UNK0       -0.1932
     30 C           7.6367   33.6851   -3.0639 C.ar    0  UNK0        0.2163
     31 N           7.4219   33.6327   -4.4243 N.pl3   0  UNK0       -0.3274
     32 N           7.9074   34.8736   -2.5344 N.ar    0  UNK0       -0.1978
     33 C           8.0606   34.9113   -1.2032 C.ar    0  UNK0        0.1491
     34 N           8.4346   36.1585   -0.6737 N.pl3   0  UNK0       -0.3413
     35 C           7.9588   33.8001   -0.3738 C.ar    0  UNK0        0.1478
     36 N           8.0628   33.8688    0.9897 N.ar    0  UNK0       -0.2405
     37 H           7.5977   32.7017   -4.7757 H       0  UNK0        0.1452
     38 H           7.8856   34.4010   -4.8891 H       0  UNK0        0.1452
     39 H           8.3414   36.8723   -1.3883 H       0  UNK0        0.1438
     40 H           7.9488   36.3556    0.1954 H       0  UNK0        0.1438
@<TRIPOS>BOND
     1    22    23    1
     2    23    24    1
     3    23     1    1
     4    24    25    1
     5    25    26   ar
     6    25    36   ar
     7    26    27   ar
     8    27    28   ar
     9    28    29   ar
    10    28    35   ar
    11    29    30   ar
    12    30    31    1
    13    30    32   ar
    14    31    37    1
    15    31    38    1
    16    32    33   ar
    17    33    34    1
    18    33    35   ar
    19    34    39    1
    20    34    40    1
    21    35    36   ar
    22     1     2   ar
    23     1     6   ar
    24     2     3   ar
    25     3     4   ar
    26     4     7    1
    27     4     5   ar
    28     7     8    2
    29     7     9   am
    30     9    11    1
    31     9    10    1
    32    11    16    1
    33    11    12    1
    34    16    17    1
    35    17    18    1
    36    18    19    2
    37    18    20    1
    38    20    21    1
    39    12    13    2
    40    12    14    1
    41    14    15    1
    42     5     6   ar
#	Name:			CHEMBL34431
#	Creating user name:	trannguyen
#	Creation time:		Tue Feb  8 18:26:14 2022


#	Modifying user name:	trannguyen
#	Modification time:	Tue Feb  8 18:26:14 2022

@<TRIPOS>MOLECULE
CHEMBL34431
 26 28 0 0 0
SMALL
GASTEIGER

@<TRIPOS>ATOM
      1 C           7.1542   31.7017    8.5013 C.3     1  UNL1        0.2059
      2 C           7.7763   32.4413    7.3257 C.3     1  UNL1        0.0569
      3 C           6.7248   33.0596    6.4110 C.3     1  UNL1        0.0891
      4 C           4.5538   31.3553    3.7573 C.3     1  UNL1        0.1148
      5 N           4.9399   32.1314    4.9338 N.am    1  UNL1       -0.2794
      6 C           6.3024   32.1382    5.2532 C.2     1  UNL1        0.2258
      7 O           7.1080   31.4671    4.6350 O.2     1  UNL1       -0.2749
      8 C           3.9161   32.6073    5.8900 C.3     1  UNL1        0.0754
      9 C           3.2723   33.9736    5.6089 C.3     1  UNL1        0.0198
     10 C           2.2864   33.9658    4.4418 C.3     1  UNL1        0.0017
     11 C           1.2516   32.8511    4.5615 C.3     1  UNL1        0.0001
     12 C           1.8395   31.4922    4.9210 C.3     1  UNL1        0.0017
     13 C           2.7961   31.5697    6.0990 C.3     1  UNL1        0.0198
     14 O           6.0270   32.4277    8.9975 O.3     1  UNL1       -0.4754
     15 C           4.9188   31.6820    9.2923 C.ar    1  UNL1        0.1386
     16 C           3.7229   32.3808    9.4349 C.ar    1  UNL1        0.0384
     17 C           2.5470   31.7043    9.7922 C.ar    1  UNL1        0.0223
     18 C           2.5397   30.3363   10.0460 C.ar    1  UNL1        0.0846
     19 N           1.4078   29.7107   10.4217 N.ar    1  UNL1       -0.2118
     20 C           1.4992   28.3921   10.6719 C.ar    1  UNL1        0.2216
     21 O           0.3290   27.8207   11.0502 O.3     1  UNL1       -0.4919
     22 C           2.6370   27.6252   10.5760 C.ar    1  UNL1        0.0575
     23 C           3.7945   28.2697   10.1794 C.ar    1  UNL1        0.0064
     24 C           3.7594   29.6414    9.9087 C.ar    1  UNL1        0.0209
     25 C           4.9269   30.3099    9.5273 C.ar    1  UNL1        0.0384
     26 H          -0.2515   28.6014   11.0111 H       1  UNL1        0.2937
@<TRIPOS>BOND
     1     4     5    1
     2     5     6   am
     3     5     8    1
     4     6     7    2
     5     6     3    1
     6     3     2    1
     7     2     1    1
     8     1    14    1
     9    14    15    1
    10    15    16   ar
    11    15    25   ar
    12    16    17   ar
    13    17    18   ar
    14    18    19   ar
    15    18    24   ar
    16    19    20   ar
    17    20    21    1
    18    20    22   ar
    19    21    26    1
    20    22    23   ar
    21    23    24   ar
    22    24    25   ar
    23     8     9    1
    24     8    13    1
    25     9    10    1
    26    10    11    1
    27    11    12    1
    28    12    13    1
#	Name:			CHEMBL3545252
#	Creating user name:	trannguyen
#	Creation time:		Tue Feb  8 18:26:14 2022


#	Modifying user name:	trannguyen
#	Modification time:	Tue Feb  8 18:26:14 2022

@<TRIPOS>MOLECULE
CHEMBL3545252
 63 68 0 0 0
SMALL
GASTEIGER

@<TRIPOS>ATOM
      1 C           9.1475   38.4229    6.0188 C.3     1  UNL1        0.1914
      2 C           8.6242   39.0596    4.6363 C.3     1  UNL1        0.1845
      3 O           7.7597   39.9585    5.4355 O.3     1  UNL1       -0.3487
      4 C           7.7258   38.8938    6.4231 C.3     1  UNL1        0.1567
      5 C           7.4484   39.2039    7.8583 C.3     1  UNL1        0.0629
      6 C           7.9717   38.0677    8.7899 C.3     1  UNL1        0.1198
      7 O           8.1948   38.7462   10.0368 O.3     1  UNL1       -0.3840
      8 C           9.2647   37.1104    8.3884 C.3     1  UNL1        0.0858
      9 C          10.4653   37.8787    8.9955 C.3     1  UNL1        0.0101
     10 C           9.3669   35.8854    9.5811 C.2     1  UNL1        0.1828
     11 O           8.7540   36.0746   10.6556 O.2     1  UNL1       -0.2931
     12 C          10.4466   34.4932    9.5976 C.3     1  UNL1        0.1857
     13 O          10.9679   34.6051   10.9648 O.3     1  UNL1       -0.3734
     14 C          11.7592   34.1790    8.6571 C.2     1  UNL1       -0.0137
     15 C          12.1419   35.4347    8.5494 C.2     1  UNL1       -0.0097
     16 C          13.3253   36.0739    9.2472 C.3     1  UNL1        0.0294
     17 C          11.2941   36.0126    7.4120 C.3     1  UNL1        0.1892
     18 C          12.0018   35.9192    5.9795 C.3     1  UNL1        0.0787
     19 C          11.2940   34.7340    5.5382 C.3     1  UNL1        0.1319
     20 O          11.7480   34.3002    4.2721 O.3     1  UNL1       -0.3828
     21 C           9.7786   35.7967    5.2723 C.3     1  UNL1        0.1976
     22 C           9.0592   36.9038    6.5518 C.3     1  UNL1        0.0929
     23 C          12.0009   33.6642    6.9513 C.3     1  UNL1        0.0433
     24 C          11.8387   32.1904    6.5932 C.3     1  UNL1        0.0066
     25 C          13.6511   33.5904    6.9901 C.3     1  UNL1        0.0066
     26 H           7.3740   38.7041   10.5518 H       1  UNL1        0.2104
     27 H          10.2184   34.9533   11.4988 H       1  UNL1        0.2113
     28 H          10.9360   34.1703    3.7412 H       1  UNL1        0.2104
     29 O          10.4366   39.0048    6.4941 O.3     1  UNL1       -0.4506
     30 C          11.2985   41.2177    5.8355 C.3     1  UNL1        0.1212
     31 C          11.2950   39.6868    5.6419 C.2     1  UNL1        0.3175
     32 O          11.9626   39.1827    4.7592 O.2     1  UNL1       -0.2501
     33 O          10.0402   34.7072    7.2571 O.3     1  UNL1       -0.4463
     34 C           8.6597   34.2911    7.0276 C.2     1  UNL1        0.3464
     35 O           7.6950   34.9242    7.4819 O.2     1  UNL1       -0.2473
     36 C           8.2905   32.8721    6.3757 C.3     1  UNL1        0.2321
     37 O           8.8783   32.5525    5.1425 O.3     1  UNL1       -0.3729
     38 H           8.4858   33.1279    4.4610 H       1  UNL1        0.2111
     39 C           6.7577   32.2760    6.3658 C.3     1  UNL1        0.1351
     40 C           6.2647   32.0500    7.7964 C.ar    1  UNL1       -0.0015
     41 C           4.9524   32.2767    8.0010 C.ar    1  UNL1       -0.0026
     42 C           4.2495   31.4309    8.8394 C.ar    1  UNL1       -0.0003
     43 C           4.7731   30.4827    9.6712 C.ar    1  UNL1       -0.0000
     44 C           6.1239   30.5076    9.7371 C.ar    1  UNL1       -0.0003
     45 C           6.8580   31.1759    8.7306 C.ar    1  UNL1       -0.0026
     46 N           6.3646   31.3470    5.3099 N.am    1  UNL1       -0.2655
     47 C           5.6041   31.7053    4.1955 C.2     1  UNL1        0.4017
     48 O           5.6907   31.1131    3.1365 O.2     1  UNL1       -0.2264
     49 H           6.5472   30.3358    5.3822 H       1  UNL1        0.1531
     50 O           4.6841   32.6901    4.4780 O.3     1  UNL1       -0.4419
     51 C           3.2205   32.4932    4.5780 C.3     1  UNL1        0.1378
     52 C           2.6307   33.6339    5.4293 C.3     1  UNL1        0.0437
     53 C           2.5886   32.5637    3.1532 C.3     1  UNL1        0.0437
     54 C           2.7390   31.2041    5.2522 C.3     1  UNL1        0.0437
     55 O           8.9844   35.3660    3.8639 O.3     1  UNL1       -0.4466
     56 C           7.7590   35.1204    3.2595 C.2     1  UNL1        0.3412
     57 O           6.5430   35.1605    4.0204 O.2     1  UNL1       -0.2449
     58 C           7.9826   34.4375    1.8153 C.ar    1  UNL1        0.0756
     59 C           7.5161   34.9899    0.5965 C.ar    1  UNL1        0.0064
     60 C           7.2930   34.2710   -0.5915 C.ar    1  UNL1        0.0002
     61 C           7.5544   32.9222   -0.6202 C.ar    1  UNL1        0.0000
     62 C           7.9732   32.2969    0.5419 C.ar    1  UNL1        0.0002
     63 C           8.1904   33.0241    1.7474 C.ar    1  UNL1        0.0064
@<TRIPOS>BOND
     1    30    31    1
     2    31    32    2
     3    31    29    1
     4     1    29    1
     5     1     2    1
     6     1     4    1
     7     1    22    1
     8     2     3    1
     9     3     4    1
    10     4     5    1
    11     5     6    1
    12     6     7    1
    13     6     8    1
    14     7    26    1
    15     8     9    1
    16     8    10    1
    17     8    22    1
    18    10    11    2
    19    10    12    1
    20    12    13    1
    21    12    14    1
    22    13    27    1
    23    14    15    2
    24    14    23    1
    25    15    16    1
    26    15    17    1
    27    17    18    1
    28    17    33    1
    29    33    34    1
    30    34    35    2
    31    36    37    1
    32    36    39    1
    33    36    34    1
    34    37    38    1
    35    39    46    1
    36    39    40    1
    37    46    47   am
    38    46    49    1
    39    47    48    2
    40    47    50    1
    41    50    51    1
    42    51    52    1
    43    51    53    1
    44    51    54    1
    45    40    41   ar
    46    40    45   ar
    47    41    42   ar
    48    42    43   ar
    49    43    44   ar
    50    44    45   ar
    51    18    19    1
    52    19    20    1
    53    19    21    1
    54    19    23    1
    55    20    28    1
    56    21    22    1
    57    21    55    1
    58    55    56    1
    59    56    57    2
    60    56    58    1
    61    58    59   ar
    62    58    63   ar
    63    59    60   ar
    64    60    61   ar
    65    61    62   ar
    66    62    63   ar
    67    23    24    1
    68    23    25    1
#	Name:			CHEMBL357995
#	Creating user name:	trannguyen
#	Creation time:		Tue Feb  8 18:26:14 2022


#	Modifying user name:	trannguyen
#	Modification time:	Tue Feb  8 18:26:14 2022

@<TRIPOS>MOLECULE
CHEMBL357995
 30 32 0 0 0
SMALL
GASTEIGER

@<TRIPOS>ATOM
      1 C           3.6191   33.5234    9.2244 C.3     1  UNL1        0.2281
      2 C           4.7848   34.3843    9.7374 C.3     1  UNL1        0.2501
      3 O           5.4959   33.6427   10.7353 O.3     1  UNL1       -0.4715
      4 C           9.9115   36.9855   11.8245 C.3     1  UNL1        0.0498
      5 C           9.2445   35.7801   11.2762 C.ar    1  UNL1        0.0341
      6 C           7.9158   35.4096   11.2499 C.ar    1  UNL1        0.0170
      7 C           7.8246   34.1115   10.6654 C.ar    1  UNL1        0.0506
      8 C           6.7560   33.2199   10.4133 C.ar    1  UNL1        0.1401
      9 C           7.0410   31.9865    9.8101 C.ar    1  UNL1        0.0370
     10 C           8.3518   31.6391    9.4741 C.ar    1  UNL1        0.0046
     11 C           9.4176   32.5097    9.7168 C.ar    1  UNL1        0.0172
     12 C           9.1217   33.7376   10.3159 C.ar    1  UNL1        0.0593
     13 N           9.9549   34.7762   10.6658 N.ar    1  UNL1       -0.3563
     14 H          10.9535   34.7814   10.5120 H       1  UNL1        0.1656
     15 C           3.8288   33.0254    7.7660 C.3     1  UNL1        0.1167
     16 N           2.6713   33.2351    6.8836 N.3     1  UNL1       -0.2965
     17 H           2.5081   34.2391    6.7963 H       1  UNL1        0.1233
     18 C           2.7924   32.6770    5.5168 C.3     1  UNL1        0.0421
     19 C           2.0680   33.5423    4.4700 C.3     1  UNL1        0.0158
     20 C           4.2568   32.4630    5.0969 C.3     1  UNL1        0.0158
     21 C           2.1098   31.2935    5.5479 C.3     1  UNL1        0.0158
     22 O           3.4742   32.3212   10.0185 O.3     1  UNL1       -0.4438
     23 C           2.3682   31.5709    9.8244 C.2     1  UNL1        0.3412
     24 O           1.2575   31.9709    9.4985 O.2     1  UNL1       -0.2449
     25 C           2.7801   30.1501    9.8668 C.ar    1  UNL1        0.0756
     26 C           4.1408   29.8342    9.7845 C.ar    1  UNL1        0.0064
     27 C           4.5557   28.5096    9.9376 C.ar    1  UNL1        0.0002
     28 C           3.6140   27.5030   10.1607 C.ar    1  UNL1        0.0000
     29 C           2.2555   27.8120   10.2192 C.ar    1  UNL1        0.0002
     30 C           1.8370   29.1331   10.0705 C.ar    1  UNL1        0.0064
@<TRIPOS>BOND
     1     4     5    1
     2     5     6   ar
     3     5    13   ar
     4     6     7   ar
     5     7     8   ar
     6     7    12   ar
     7     8     3    1
     8     8     9   ar
     9     3     2    1
    10     2     1    1
    11     1    15    1
    12     1    22    1
    13    15    16    1
    14    16    18    1
    15    16    17    1
    16    18    19    1
    17    18    20    1
    18    18    21    1
    19    22    23    1
    20    23    24    2
    21    23    25    1
    22    25    26   ar
    23    25    30   ar
    24    26    27   ar
    25    27    28   ar
    26    28    29   ar
    27    29    30   ar
    28     9    10   ar
    29    10    11   ar
    30    11    12   ar
    31    12    13   ar
    32    13    14    1
#	Name:			CHEMBL35
#	Creating user name:	trannguyen
#	Creation time:		Tue Feb  8 18:26:14 2022


#	Modifying user name:	trannguyen
#	Modification time:	Tue Feb  8 18:26:14 2022

@<TRIPOS>MOLECULE
CHEMBL35
 25 26 0 0 0
SMALL
GASTEIGER

@<TRIPOS>ATOM
      1 C           2.4640   29.3274   10.3785 C.ar    1  UNL1        0.1325
      2 C           1.5468   30.3627   10.1561 C.ar    1  UNL1        0.0284
      3 C           1.9479   31.5454    9.5099 C.ar    1  UNL1        0.0899
      4 C           3.2713   31.6949    9.0363 C.ar    1  UNL1        0.0521
      5 C           4.1812   30.6722    9.3596 C.ar    1  UNL1        0.0273
      6 C           3.7888   29.4840    9.9918 C.ar    1  UNL1        0.0774
      7 CL          5.0208   28.2973   10.2246 Cl      1  UNL1       -0.0808
      8 N           0.2366   27.8955   10.8928 N.3     1  UNL1       -0.2034
      9 S           1.8963   27.8372   11.1351 S.O2    1  UNL1        0.0580
     10 O           2.1251   27.9125   12.5580 O.2     1  UNL1       -0.1532
     11 O           2.3421   26.7166   10.3445 O.2     1  UNL1       -0.1532
     12 H          -0.2426   27.9672   11.7924 H       1  UNL1        0.1442
     13 H          -0.0608   27.0995   10.3282 H       1  UNL1        0.1442
     14 C           0.9030   32.5974    9.3662 C.2     1  UNL1        0.3393
     15 O           0.8561   33.5842   10.0783 O.2     1  UNL1       -0.2450
     16 O           0.0648   32.3894    8.3269 O.3     1  UNL1       -0.4771
     17 H           0.2400   31.5446    7.8553 H       1  UNL1        0.2954
     18 N           3.6625   32.8504    8.3271 N.pl3   1  UNL1       -0.3263
     19 H           2.8803   33.5114    8.2665 H       1  UNL1        0.1472
     20 C           4.2972   32.7231    6.9940 C.3     1  UNL1        0.1528
     21 C           3.4235   32.2831    5.8624 C.ar    1  UNL1        0.1427
     22 C           3.6608   31.6965    4.6353 C.ar    1  UNL1        0.0379
     23 C           2.4069   31.6099    3.9821 C.ar    1  UNL1        0.0435
     24 C           1.4838   32.1428    4.8500 C.ar    1  UNL1        0.1792
     25 O           2.0903   32.5540    5.9931 O.2     1  UNL1       -0.4530
@<TRIPOS>BOND
     1     8     9    1
     2     8    12    1
     3     8    13    1
     4     9    10    2
     5     9    11    2
     6     9     1    1
     7     1     2   ar
     8     1     6   ar
     9     2     3   ar
    10     3    14    1
    11     3     4   ar
    12    14    15    2
    13    14    16    1
    14    16    17    1
    15     4    18    1
    16     4     5   ar
    17    18    20    1
    18    18    19    1
    19    20    21    1
    20    21    22   ar
    21    21    25   ar
    22    22    23   ar
    23    23    24   ar
    24    24    25   ar
    25     5     6   ar
    26     6     7    1
#	Name:			CHEMBL364713
#	Creating user name:	trannguyen
#	Creation time:		Tue Feb  8 18:26:14 2022


#	Modifying user name:	trannguyen
#	Modification time:	Tue Feb  8 18:26:14 2022

@<TRIPOS>MOLECULE
CHEMBL364713
 30 34 0 0 0
SMALL
GASTEIGER

@<TRIPOS>ATOM
      1 C           5.0428   32.3984    8.4652 C.3     1  UNL1        0.1279
      2 C           4.5753   31.1409    9.2129 C.ar    1  UNL1        0.0294
      3 C           5.5192   30.4005    9.9817 C.ar    1  UNL1       -0.0172
      4 C           5.1429   29.1964   10.5913 C.ar    1  UNL1        0.0359
      5 C           3.8473   28.7636   10.4282 C.ar    1  UNL1        0.1791
      6 C           2.9234   29.4641    9.6848 C.ar    1  UNL1        0.2097
      7 C           3.2563   30.6497    9.0468 C.ar    1  UNL1        0.1726
      8 O           1.7165   28.8297    9.6771 O.3     1  UNL1       -0.4315
      9 C           1.9754   27.6976   10.5259 C.3     1  UNL1        0.4295
     10 O           3.3422   27.6187   10.9627 O.3     1  UNL1       -0.4345
     11 C           6.9334   30.8929   10.1852 C.3     1  UNL1        0.0436
     12 C           7.3131   32.1491    9.3948 C.3     1  UNL1        0.0772
     13 N           6.1718   33.0324    9.2006 N.3     1  UNL1       -0.2655
     14 C           6.5591   34.3563    8.7390 C.3     1  UNL1        0.0900
     15 C           8.7016   33.2082    4.8786 C.ar    1  UNL1        0.1726
     16 C           8.7679   32.0926    5.7359 C.ar    1  UNL1        0.0398
     17 C           7.6472   31.6410    6.4175 C.ar    1  UNL1        0.0028
     18 C           6.4575   32.3281    6.2491 C.ar    1  UNL1        0.0284
     19 C           6.3512   33.3666    5.3341 C.ar    1  UNL1        0.1120
     20 C           7.4679   33.8631    4.6527 C.ar    1  UNL1        0.1783
     21 C           4.9154   33.6820    5.2358 C.2     1  UNL1        0.3443
     22 O           4.3580   34.4487    4.4891 O.2     1  UNL1       -0.2448
     23 O           4.2554   32.9055    6.1506 O.3     1  UNL1       -0.4428
     24 C           5.1525   32.0839    6.9190 C.3     1  UNL1        0.2104
     25 C          10.8301   34.3192    5.1009 C.3     1  UNL1        0.2526
     26 O           9.9391   33.5004    4.3625 O.3     1  UNL1       -0.4684
     27 O           7.4492   34.8601    3.7229 O.3     1  UNL1       -0.4682
     28 C           7.3585   34.5050    2.3483 C.3     1  UNL1        0.2526
     29 O           2.4216   31.3940    8.2578 O.3     1  UNL1       -0.4685
     30 C           1.3846   32.1102    8.9233 C.3     1  UNL1        0.2526
@<TRIPOS>BOND
     1    25    26    1
     2    26    15    1
     3    15    16   ar
     4    15    20   ar
     5    16    17   ar
     6    17    18   ar
     7    18    19   ar
     8    18    24    1
     9    19    20   ar
    10    19    21    1
    11    20    27    1
    12    27    28    1
    13    21    22    2
    14    21    23    1
    15    23    24    1
    16    24     1    1
    17     1     2    1
    18     1    13    1
    19     2     3   ar
    20     2     7   ar
    21     3     4   ar
    22     3    11    1
    23     4     5   ar
    24     5     6   ar
    25     5    10    1
    26     6     7   ar
    27     6     8    1
    28     7    29    1
    29    29    30    1
    30     8     9    1
    31     9    10    1
    32    11    12    1
    33    12    13    1
    34    13    14    1
#	Name:			CHEMBL36715
#	Creating user name:	trannguyen
#	Creation time:		Tue Feb  8 18:26:14 2022


#	Modifying user name:	trannguyen
#	Modification time:	Tue Feb  8 18:26:14 2022

@<TRIPOS>MOLECULE
CHEMBL36715
 12 12 0 0 0
SMALL
GASTEIGER

@<TRIPOS>ATOM
      1 C           2.3455   28.3754    9.8841 C.3     1  UNL1        0.1788
      2 N           2.6753   29.7490    9.5280 N.am    1  UNL1       -0.2713
      3 C           4.0262   30.2423    9.5893 C.3     1  UNL1        0.0944
      4 C           3.8783   31.7079    9.2315 C.3     1  UNL1        0.0311
      5 C           2.6851   31.7334    8.2822 C.3     1  UNL1        0.0871
      6 C           1.8789   30.5331    8.7115 C.2     1  UNL1        0.2260
      7 O           0.7345   30.2767    8.3686 O.2     1  UNL1       -0.2749
      8 N           0.0982   28.4221   10.8700 N.am    1  UNL1       -0.3274
      9 C           1.4354   28.2931   11.1102 C.2     1  UNL1        0.2397
     10 O           1.8507   28.0339   12.2362 O.2     1  UNL1       -0.2735
     11 H          -0.5478   28.3657   11.6438 H       1  UNL1        0.1450
     12 H          -0.2552   28.6252    9.9364 H       1  UNL1        0.1450
@<TRIPOS>BOND
     1     8     9   am
     2     8    11    1
     3     8    12    1
     4     9    10    2
     5     9     1    1
     6     1     2    1
     7     2     3    1
     8     2     6   am
     9     3     4    1
    10     4     5    1
    11     5     6    1
    12     6     7    2
#	Name:			CHEMBL36994
#	Creating user name:	trannguyen
#	Creation time:		Tue Feb  8 18:26:14 2022


#	Modifying user name:	trannguyen
#	Modification time:	Tue Feb  8 18:26:14 2022

@<TRIPOS>MOLECULE
CHEMBL36994
 16 17 0 0 0
SMALL
GASTEIGER

@<TRIPOS>ATOM
      1 C           2.3908   29.9585   10.5096 C.ar    1  UNL1        0.1387
      2 C           3.6013   29.8609    9.8201 C.ar    1  UNL1        0.0370
      3 C           3.9439   30.8146    8.8562 C.ar    1  UNL1        0.0076
      4 C           3.0786   31.8811    8.5717 C.ar    1  UNL1        0.0542
      5 C           1.9100   32.0180    9.3209 C.ar    1  UNL1        0.0076
      6 C           1.5532   31.0443   10.2604 C.ar    1  UNL1        0.0370
      7 C           3.4931   32.8590    7.5292 C.2     1  UNL1        0.2547
      8 O           4.4827   33.5535    7.7610 O.2     1  UNL1       -0.2695
      9 N           2.8138   32.9488    6.3006 N.am    1  UNL1       -0.2264
     10 C           3.2996   33.9200    5.3499 C.3     1  UNL1        0.1017
     11 C           2.2864   33.9091    4.2321 C.3     1  UNL1        0.0316
     12 C           1.8506   32.4596    4.1902 C.3     1  UNL1        0.0875
     13 C           2.0084   32.0049    5.6244 C.2     1  UNL1        0.2316
     14 O           1.4892   30.9882    6.0513 O.2     1  UNL1       -0.2745
     15 C           2.2372   27.6240   10.8793 C.3     1  UNL1        0.2525
     16 O           2.1408   28.9468   11.3965 O.3     1  UNL1       -0.4714
@<TRIPOS>BOND
     1    15    16    1
     2    16     1    1
     3     1     2   ar
     4     1     6   ar
     5     2     3   ar
     6     3     4   ar
     7     4     7    1
     8     4     5   ar
     9     7     8    2
    10     7     9   am
    11     9    10    1
    12     9    13   am
    13    10    11    1
    14    11    12    1
    15    12    13    1
    16    13    14    2
    17     5     6   ar
#	Name:			CHEMBL37161
#	Creating user name:	trannguyen
#	Creation time:		Tue Feb  8 18:26:14 2022


#	Modifying user name:	trannguyen
#	Modification time:	Tue Feb  8 18:26:14 2022

@<TRIPOS>MOLECULE
CHEMBL37161
 23 25 0 0 0
SMALL
GASTEIGER

@<TRIPOS>ATOM
      1 C           5.7929   32.3844    3.5938 C.ar    1  UNL1        0.2029
      2 N           4.6435   31.7791    3.4350 N.ar    1  UNL1       -0.2136
      3 C           4.0458   31.8085    4.6593 C.ar    1  UNL1        0.0997
      4 C           2.7640   31.4050    5.0367 C.ar    1  UNL1        0.0212
      5 C           2.3960   31.4931    6.3853 C.ar    1  UNL1        0.0081
      6 C           3.2872   31.9799    7.3490 C.ar    1  UNL1        0.0310
      7 C           4.5825   32.3945    6.9828 C.ar    1  UNL1        0.0250
      8 C           4.9092   32.3276    5.6282 C.ar    1  UNL1        0.0770
      9 N           6.0142   32.7062    4.9093 N.ar    1  UNL1       -0.3252
     10 H           6.8621   33.1274    5.2725 H       1  UNL1        0.1686
     11 C           7.3017   31.6009    1.9385 C.2     1  UNL1        0.4076
     12 O           7.0513   30.4076    2.0382 O.2     1  UNL1       -0.2260
     13 N           6.6692   32.6248    2.5804 N.am    1  UNL1       -0.2212
     14 H           7.1839   33.4924    2.6181 H       1  UNL1        0.1610
     15 C           7.9844   32.2546   -0.2059 C.3     1  UNL1        0.2574
     16 O           8.2951   32.1288    1.1808 O.3     1  UNL1       -0.4303
     17 S           2.8471   32.0729    9.0819 S.3     1  UNL1       -0.0869
     18 C           2.8871   30.3662    9.5984 C.ar    1  UNL1        0.0295
     19 C           1.6852   29.7180    9.9002 C.ar    1  UNL1        0.0065
     20 C           1.6873   28.3844   10.3131 C.ar    1  UNL1        0.0005
     21 C           2.8913   27.6907   10.4229 C.ar    1  UNL1        0.0000
     22 C           4.0928   28.3275   10.1155 C.ar    1  UNL1        0.0005
     23 C           4.0914   29.6605    9.6984 C.ar    1  UNL1        0.0065
@<TRIPOS>BOND
     1    15    16    1
     2    16    11    1
     3    11    12    2
     4    11    13   am
     5    13     1    1
     6    13    14    1
     7     1     2   ar
     8     1     9   ar
     9     2     3   ar
    10     3     4   ar
    11     3     8   ar
    12     4     5   ar
    13     5     6   ar
    14     6    17    1
    15     6     7   ar
    16    17    18    1
    17    18    19   ar
    18    18    23   ar
    19    19    20   ar
    20    20    21   ar
    21    21    22   ar
    22    22    23   ar
    23     7     8   ar
    24     8     9   ar
    25     9    10    1
#	Name:			CHEMBL372795
#	Creating user name:	trannguyen
#	Creation time:		Tue Feb  8 18:26:14 2022


#	Modifying user name:	trannguyen
#	Modification time:	Tue Feb  8 18:26:14 2022

@<TRIPOS>MOLECULE
CHEMBL372795
 56 58 0 0 0
SMALL
GASTEIGER

@<TRIPOS>ATOM
      1 O           5.7298   33.5309    8.1592 O.3     1  UNL1       -0.3248
      2 C           6.9222   33.0021    8.8201 C.3     1  UNL1        0.1891
      3 C           8.0197   34.0840    8.6200 C.3     1  UNL1        0.2401
      4 C           9.4519   33.5894    8.3635 C.3     1  UNL1        0.1953
      5 O          10.1467   34.7262    7.8065 O.3     1  UNL1       -0.3778
      6 C           9.5158   32.3753    7.4541 C.3     1  UNL1        0.2397
      7 C           8.7427   31.2338    8.1762 C.3     1  UNL1        0.1821
      8 O           8.7959   29.9795    7.4669 O.3     1  UNL1       -0.3786
      9 C           7.2674   31.5859    8.3169 C.3     1  UNL1        0.1715
     10 O           6.6636   30.6347    9.2279 O.3     1  UNL1       -0.3794
     11 H          10.1081   35.3910    8.5295 H       1  UNL1        0.2106
     12 H           8.8572   30.1831    6.5147 H       1  UNL1        0.2106
     13 H           7.0729   29.7706    9.0197 H       1  UNL1        0.2105
     14 N           8.1423   34.8951    9.8581 N.pl3   1  UNL1       -0.0964
     15 C           7.4453   35.9493   10.0601 C.cat   1  UNL1        0.3773
     16 N           6.5675   36.5443    9.2365 N.pl3   1  UNL1       -0.2892
     17 N           7.6367   36.6717   11.1848 N.pl3   1  UNL1       -0.2892
     18 H           6.7734   36.4671    8.2395 H       1  UNL1        0.2546
     19 H           6.2432   37.4616    9.5132 H       1  UNL1        0.2546
     20 H           8.1855   36.1822   11.8850 H       1  UNL1        0.2546
     21 H           6.8364   37.1513   11.5868 H       1  UNL1        0.2546
     22 N          10.8794   31.8154    7.3122 N.pl3   1  UNL1       -0.0964
     23 C          11.5228   31.8140    6.2160 C.cat   1  UNL1        0.3773
     24 N          11.2002   32.3213    4.9584 N.pl3   1  UNL1       -0.2892
     25 N          12.7153   31.2592    6.1603 N.pl3   1  UNL1       -0.2892
     26 H          10.4352   33.0092    5.0630 H       1  UNL1        0.2546
     27 H          12.0079   32.8178    4.5879 H       1  UNL1        0.2546
     28 H          12.8890   30.6803    6.9786 H       1  UNL1        0.2546
     29 H          12.8712   30.6779    5.3042 H       1  UNL1        0.2546
     30 C           3.7223   32.7363    7.0046 C.3     1  UNL1        0.2076
     31 C           5.2584   32.7642    7.0526 C.3     1  UNL1        0.2665
     32 O           5.6536   33.4017    5.8403 O.3     1  UNL1       -0.3282
     33 C           4.7509   33.0494    4.7994 C.3     1  UNL1        0.1520
     34 C           5.4282   31.9991    3.9257 C.3     1  UNL1        0.0352
     35 C           3.4441   32.6328    5.4848 C.3     1  UNL1        0.2009
     36 O           3.0263   31.3197    5.1047 O.3     1  UNL1       -0.3751
     37 H           2.6586   30.9094    5.9140 H       1  UNL1        0.2110
     38 C           2.3749   33.6153    5.0205 C.2     1  UNL1        0.2386
     39 O           2.4196   34.2656    3.9799 O.2     1  UNL1       -0.2856
     40 O           3.1405   31.5939    7.6852 O.3     1  UNL1       -0.3237
     41 C           1.5718   31.6338    9.6341 C.3     1  UNL1        0.1408
     42 C           3.0492   31.7399    9.1132 C.3     1  UNL1        0.2528
     43 O           3.8224   30.7748    9.8056 O.3     1  UNL1       -0.3268
     44 C           3.3868   29.4320    9.6197 C.3     1  UNL1        0.1760
     45 C           1.9190   29.1767    9.9556 C.3     1  UNL1        0.1683
     46 O           1.4948   27.8746    9.5188 O.3     1  UNL1       -0.3795
     47 C           1.0126   30.2187    9.3292 C.3     1  UNL1        0.1589
     48 O          -0.2967   29.9953    9.8829 O.3     1  UNL1       -0.3804
     49 H           2.2447   27.2645    9.7007 H       1  UNL1        0.2105
     50 H          -0.4242   29.0247    9.8243 H       1  UNL1        0.2105
     51 C           0.4541   33.7032   10.2719 C.3     1  UNL1        0.0860
     52 N           0.6880   32.7403    9.2113 N.3     1  UNL1       -0.2913
     53 H          -0.2038   32.3565    8.8985 H       1  UNL1        0.1235
     54 C           4.1868   28.5895   10.5945 C.3     1  UNL1        0.1693
     55 O           4.1689   27.2244   10.2085 O.3     1  UNL1       -0.3794
     56 H           4.9908   26.8547   10.5805 H       1  UNL1        0.2105
@<TRIPOS>BOND
     1    51    52    1
     2    52    53    1
     3    41    42    1
     4    41    47    1
     5    41    52    1
     6    42    43    1
     7    42    40    1
     8    40    30    1
     9    30    31    1
    10    30    35    1
    11    31    32    1
    12    31     1    1
    13     2     3    1
    14     2     9    1
    15     2     1    1
    16     3    14    1
    17     3     4    1
    18    14    15    2
    19    15    16    1
    20    15    17    1
    21    16    18    1
    22    16    19    1
    23    17    20    1
    24    17    21    1
    25     4     5    1
    26     4     6    1
    27     5    11    1
    28     6     7    1
    29     6    22    1
    30    22    23    2
    31    23    24    1
    32    23    25    1
    33    24    26    1
    34    24    27    1
    35    25    28    1
    36    25    29    1
    37     7     8    1
    38     7     9    1
    39     8    12    1
    40     9    10    1
    41    10    13    1
    42    32    33    1
    43    33    35    1
    44    33    34    1
    45    35    36    1
    46    35    38    1
    47    36    37    1
    48    38    39    2
    49    43    44    1
    50    44    45    1
    51    44    54    1
    52    54    55    1
    53    55    56    1
    54    45    46    1
    55    45    47    1
    56    46    49    1
    57    47    48    1
    58    48    50    1
#	Name:			CHEMBL374478
#	Creating user name:	trannguyen
#	Creation time:		Tue Feb  8 18:26:14 2022


#	Modifying user name:	trannguyen
#	Modification time:	Tue Feb  8 18:26:14 2022

@<TRIPOS>MOLECULE
CHEMBL374478
 65 69 0 0 0
SMALL
GASTEIGER

@<TRIPOS>ATOM
      1 C           9.4279   36.7411    6.0080 C.3     1  UNL1        0.1438
      2 C           9.7523   36.2841    7.4355 C.2     1  UNL1        0.0431
      3 C           8.9454   36.2700    8.5127 C.2     1  UNL1        0.1742
      4 O           9.4007   35.8680    9.7414 O.2     1  UNL1       -0.4400
      5 C           8.4675   35.2936   10.6938 C.3     1  UNL1        0.3263
      6 C           8.1443   36.2956   11.7823 C.3     1  UNL1        0.1003
      7 O           7.2564   34.6812   10.1472 O.3     1  UNL1       -0.4429
      8 C           7.6962   33.4485    9.6838 C.ar    1  UNL1        0.1445
      9 C           7.1338   32.8447    8.5748 C.ar    1  UNL1        0.0461
     10 C           5.7480   33.2214    8.1524 C.3     1  UNL1        0.0374
     11 C           8.0164   32.0540    7.8278 C.ar    1  UNL1        0.1355
     12 O           7.6378   31.5599    6.5964 O.3     1  UNL1       -0.5056
     13 C           9.3857   31.8478    8.2167 C.ar    1  UNL1        0.0715
     14 C          10.4027   31.4217    7.3247 C.ar    1  UNL1        0.1500
     15 O          10.1260   31.0752    6.0198 O.3     1  UNL1       -0.5042
     16 C          11.7560   31.5330    7.6677 C.ar    1  UNL1        0.0893
     17 C          12.1150   31.7479    8.9970 C.ar    1  UNL1        0.0708
     18 C          11.1265   32.0346    9.9326 C.ar    1  UNL1        0.1367
     19 O          11.4147   32.1125   11.2672 O.3     1  UNL1       -0.5054
     20 C           9.7984   32.2511    9.5167 C.ar    1  UNL1        0.0456
     21 C           8.9014   33.0400   10.2323 C.ar    1  UNL1        0.0789
     22 C           9.1781   34.0651   11.2378 C.2     1  UNL1        0.2515
     23 O           9.7347   33.9349   12.2908 O.2     1  UNL1       -0.2836
     24 N          12.7104   31.6111    6.6155 N.am    1  UNL1       -0.2782
     25 C          13.4515   32.7830    6.5065 C.2     1  UNL1        0.2456
     26 O          13.3124   33.7514    7.2528 O.2     1  UNL1       -0.2702
     27 C          14.4441   32.8878    5.3896 C.2     1  UNL1        0.0318
     28 C          15.6324   33.7583    5.7057 C.3     1  UNL1        0.0358
     29 C          14.1422   32.3616    4.1918 C.2     1  UNL1       -0.0001
     30 C          14.7469   32.6053    2.9006 C.2     1  UNL1       -0.0047
     31 C          14.9807   33.8498    2.4510 C.2     1  UNL1       -0.0240
     32 C          14.8355   34.2128    0.9988 C.3     1  UNL1        0.0490
     33 C          16.0580   34.9055    0.4157 C.3     1  UNL1        0.0072
     34 C          13.4856   34.9884    0.8467 C.3     1  UNL1        0.1167
     35 O          13.1090   34.8684   -0.5332 O.3     1  UNL1       -0.3840
     36 C          13.3977   36.4893    1.3081 C.3     1  UNL1        0.0542
     37 C          13.7368   37.3989    0.0987 C.3     1  UNL1        0.0050
     38 C          11.9822   36.9443    1.9178 C.3     1  UNL1        0.1162
     39 O          11.9073   38.3863    1.8343 O.3     1  UNL1       -0.3843
     40 C          11.5172   36.6339    3.4129 C.3     1  UNL1        0.0672
     41 C          12.6162   36.0117    4.2649 C.3     1  UNL1        0.0062
     42 C          10.0953   35.9238    3.5412 C.3     1  UNL1        0.1736
     43 C           9.6087   35.5395    5.0077 C.3     1  UNL1        0.0717
     44 C           8.3204   34.6884    5.0041 C.3     1  UNL1        0.0066
     45 H           6.7472   31.8880    6.3807 H       1  UNL1        0.2922
     46 H           9.1468   31.0747    5.9460 H       1  UNL1        0.2923
     47 H          12.3890   32.1607   11.3817 H       1  UNL1        0.2922
     48 H          12.3875   31.2017    5.7480 H       1  UNL1        0.1553
     49 H          12.9954   33.9240   -0.7404 H       1  UNL1        0.2103
     50 H          12.6925   38.7491    2.2777 H       1  UNL1        0.2103
     51 C           7.8627   38.4600    5.2937 C.3     1  UNL1        0.1745
     52 O           8.1060   37.2959    6.0612 O.3     1  UNL1       -0.3490
     53 C          13.5410   31.6916    9.3767 C.2     1  UNL1        0.1217
     54 N          14.0051   30.6708   10.0223 N.2     1  UNL1       -0.1803
     55 N          15.3289   30.6963   10.3564 N.pl3   1  UNL1       -0.2299
     56 C          15.5265   30.5630   11.8230 C.3     1  UNL1        0.1283
     57 C          15.1804   29.1346   12.3118 C.3     1  UNL1        0.0956
     58 N          15.8681   28.0300   11.5995 N.3     1  UNL1       -0.2685
     59 C          17.2369   27.8584   12.0730 C.3     1  UNL1        0.0897
     60 C          15.8316   28.2681   10.1416 C.3     1  UNL1        0.0956
     61 C          16.2253   29.6981    9.7250 C.3     1  UNL1        0.1283
     62 O          10.1505   34.7373    2.7064 O.3     1  UNL1       -0.4521
     63 C           9.6336   34.8726    1.4418 C.2     1  UNL1        0.3174
     64 C           8.2779   35.5031    1.5239 C.3     1  UNL1        0.1212
     65 O          10.0798   34.3642    0.4252 O.2     1  UNL1       -0.2501
@<TRIPOS>BOND
     1    51    52    1
     2    52     1    1
     3     1     2    1
     4     1    43    1
     5     2     3    2
     6     3     4    1
     7     4     5    1
     8     5     7    1
     9     5    22    1
    10     5     6    1
    11     7     8    1
    12     8     9   ar
    13     8    21   ar
    14     9    11   ar
    15     9    10    1
    16    11    13   ar
    17    11    12    1
    18    12    45    1
    19    13    14   ar
    20    13    20   ar
    21    14    16   ar
    22    14    15    1
    23    15    46    1
    24    16    17   ar
    25    16    24    1
    26    17    18   ar
    27    17    53    1
    28    53    54    2
    29    54    55    1
    30    55    56    1
    31    55    61    1
    32    56    57    1
    33    57    58    1
    34    58    59    1
    35    58    60    1
    36    60    61    1
    37    18    20   ar
    38    18    19    1
    39    19    47    1
    40    20    21   ar
    41    21    22    1
    42    22    23    2
    43    24    25   am
    44    24    48    1
    45    25    27    1
    46    25    26    2
    47    27    29    2
    48    27    28    1
    49    29    30    1
    50    30    31    2
    51    31    32    1
    52    32    34    1
    53    32    33    1
    54    34    36    1
    55    34    35    1
    56    35    49    1
    57    36    38    1
    58    36    37    1
    59    38    40    1
    60    38    39    1
    61    39    50    1
    62    40    42    1
    63    40    41    1
    64    42    43    1
    65    42    62    1
    66    62    63    1
    67    63    64    1
    68    63    65    2
    69    43    44    1
#	Name:			CHEMBL376180
#	Creating user name:	trannguyen
#	Creation time:		Tue Feb  8 18:26:14 2022


#	Modifying user name:	trannguyen
#	Modification time:	Tue Feb  8 18:26:14 2022

@<TRIPOS>MOLECULE
CHEMBL376180
 40 42 0 0 0
SMALL
GASTEIGER

@<TRIPOS>ATOM
      1 C           5.7696   33.3725    4.4750 C.ar    0  UNK0        0.0449
      2 C           4.5295   33.0433    3.9181 C.ar    0  UNK0        0.0145
      3 C           3.5215   32.4536    4.6836 C.ar    0  UNK0        0.0058
      4 C           3.7559   32.1308    6.0223 C.ar    0  UNK0        0.0534
      5 C           5.0155   32.3773    6.5740 C.ar    0  UNK0        0.0058
      6 C           6.0115   32.9871    5.8014 C.ar    0  UNK0        0.0145
      7 C           2.7180   31.4523    6.8423 C.2     0  UNK0        0.2462
      8 O           1.6656   31.0798    6.3342 O.2     0  UNK0       -0.2701
      9 N           3.0094   31.2821    8.1816 N.am    1  GLU1       -0.2932
     10 H           3.9856   31.3222    8.4675 H       1  GLU1        0.1502
     11 CA          2.0601   30.6075    9.0955 C.3     1  GLU1        0.1720
     12 C           1.0700   31.6719    9.5952 C.2     1  GLU1        0.3318
     13 O           0.0190   31.9988    9.0447 O.2     1  GLU1       -0.2485
     14 OXT         1.4958   32.3020   10.7204 O.3     1  GLU1       -0.4791
     15 HXT         2.4203   32.0254   10.9038 H       1  GLU1        0.2951
     16 CB          2.8130   29.8702   10.2150 C.3     1  GLU1        0.0427
     17 CG          2.9823   28.3592   10.0305 C.3     1  GLU1        0.1116
     18 CD          2.3339   27.5608   11.1265 C.2     1  GLU1        0.3139
     19 OE1         2.0174   27.9641   12.2445 O.2     1  GLU1       -0.2503
     20 OE2         2.1132   26.2780   10.7734 O.3     1  GLU1       -0.4802
     21 HE2         1.7068   25.8877   11.5775 H       1  GLU1        0.2951
     22 N           6.8152   33.9235    3.7285 N.pl3   0  UNK0       -0.3278
     23 H           6.4584   34.4939    2.9591 H       0  UNK0        0.1472
     24 C           7.8865   33.0446    3.2512 C.3     0  UNK0        0.1354
     25 N           7.6807   33.0870   -4.4170 N.pl3   0  UNK0       -0.3274
     26 C           7.6900   33.3309   -3.0613 C.ar    0  UNK0        0.2163
     27 N           7.6712   34.5979   -2.6594 N.ar    0  UNK0       -0.1978
     28 C           7.7067   34.8056   -1.3344 C.ar    0  UNK0        0.1491
     29 N           7.6181   36.1502   -0.9356 N.pl3   0  UNK0       -0.3413
     30 C           7.7460   33.7865   -0.3875 C.ar    0  UNK0        0.1478
     31 N           7.8306   33.9988    0.9630 N.ar    0  UNK0       -0.2405
     32 C           7.8491   32.8930    1.7472 C.ar    0  UNK0        0.0980
     33 C           7.7659   31.6339    1.1859 C.ar    0  UNK0        0.1169
     34 N           7.7057   31.4318   -0.1484 N.ar    0  UNK0       -0.2223
     35 C           7.7090   32.5035   -0.9484 C.ar    0  UNK0        0.1857
     36 N           7.6813   32.2781   -2.2551 N.ar    0  UNK0       -0.1932
     37 H           7.2571   33.8576   -4.9139 H       0  UNK0        0.1452
     38 H           7.3189   32.1607   -4.6010 H       0  UNK0        0.1452
     39 H           7.7322   36.7484   -1.7477 H       0  UNK0        0.1438
     40 H           8.2495   36.3562   -0.1686 H       0  UNK0        0.1438
@<TRIPOS>BOND
     1    25    26    1
     2    25    37    1
     3    25    38    1
     4    26    27   ar
     5    26    36   ar
     6    27    28   ar
     7    28    29    1
     8    28    30   ar
     9    29    39    1
    10    29    40    1
    11    30    31   ar
    12    30    35   ar
    13    31    32   ar
    14    32    24    1
    15    32    33   ar
    16    24    22    1
    17    22     1    1
    18    22    23    1
    19     1     2   ar
    20     1     6   ar
    21     2     3   ar
    22     3     4   ar
    23     4     7    1
    24     4     5   ar
    25     7     8    2
    26     7     9   am
    27     9    11    1
    28     9    10    1
    29    11    16    1
    30    11    12    1
    31    16    17    1
    32    17    18    1
    33    18    19    2
    34    18    20    1
    35    20    21    1
    36    12    13    2
    37    12    14    1
    38    14    15    1
    39     5     6   ar
    40    33    34   ar
    41    34    35   ar
    42    35    36   ar
#	Name:			CHEMBL37858
#	Creating user name:	trannguyen
#	Creation time:		Tue Feb  8 18:26:14 2022


#	Modifying user name:	trannguyen
#	Modification time:	Tue Feb  8 18:26:14 2022

@<TRIPOS>MOLECULE
CHEMBL37858
 30 33 0 0 0
SMALL
GASTEIGER

@<TRIPOS>ATOM
      1 C           7.5740   32.8674    4.1702 C.ar    1  UNL1        0.1317
      2 C           7.9293   33.0664    5.4451 C.ar    1  UNL1        0.0898
      3 N           7.1514   32.8931    6.6018 N.ar    1  UNL1       -0.3045
      4 C           5.7773   32.4848    6.3976 C.ar    1  UNL1        0.0684
      5 C           4.8694   32.2133    7.4433 C.ar    1  UNL1        0.0344
      6 C           3.5178   31.8509    7.2239 C.ar    1  UNL1        0.0772
      7 C           3.0980   31.7107    5.8936 C.ar    1  UNL1        0.1535
      8 F           1.8361   31.3739    5.5909 F       1  UNL1       -0.2029
      9 C           3.9686   31.9151    4.8341 C.ar    1  UNL1        0.0356
     10 C           5.2913   32.2922    5.0865 C.ar    1  UNL1        0.0576
     11 C           6.1878   32.4488    3.9209 C.ar    1  UNL1        0.2047
     12 O           5.8069   32.2405    2.7769 O.2     1  UNL1       -0.2862
     13 C           7.7880   33.1387    7.8759 C.ar    1  UNL1        0.0642
     14 C           7.7963   34.4069    8.4829 C.ar    1  UNL1        0.0198
     15 C           8.4150   34.6186    9.7221 C.ar    1  UNL1        0.0311
     16 C           9.0886   33.5775   10.3443 C.ar    1  UNL1        0.1402
     17 F           9.7011   33.7893   11.5158 F       1  UNL1       -0.2042
     18 C           9.1427   32.3235    9.7594 C.ar    1  UNL1        0.0311
     19 C           8.4825   32.1030    8.5461 C.ar    1  UNL1        0.0198
     20 N           2.6998   31.6430    8.3557 N.pl3   1  UNL1       -0.3029
     21 C           2.4417   32.8267    9.2109 C.3     1  UNL1        0.1079
     22 C           1.3831   32.4802   10.2812 C.3     1  UNL1        0.0903
     23 N           1.7973   31.3536   11.1405 N.3     1  UNL1       -0.2946
     24 C           2.1111   30.1866   10.2937 C.3     1  UNL1        0.0903
     25 C           3.1394   30.4802    9.1704 C.3     1  UNL1        0.1079
     26 H           1.0321   31.1167   11.7704 H       1  UNL1        0.1233
     27 O           9.2832   34.0744    3.0440 O.2     1  UNL1       -0.2449
     28 C           8.5643   33.0845    3.0984 C.2     1  UNL1        0.3427
     29 O           8.6379   32.1007    2.1849 O.3     1  UNL1       -0.4770
     30 H           8.0166   31.3428    2.3517 H       1  UNL1        0.2954
@<TRIPOS>BOND
     1    27    28    2
     2    28    29    1
     3    28     1    1
     4    29    30    1
     5     1     2   ar
     6     1    11   ar
     7     2     3   ar
     8     3    13    1
     9     3     4   ar
    10    13    14   ar
    11    13    19   ar
    12    14    15   ar
    13    15    16   ar
    14    16    17    1
    15    16    18   ar
    16    18    19   ar
    17     4     5   ar
    18     4    10   ar
    19     5     6   ar
    20     6    20    1
    21     6     7   ar
    22    20    21    1
    23    20    25    1
    24    21    22    1
    25    22    23    1
    26    23    24    1
    27    23    26    1
    28    24    25    1
    29     7     8    1
    30     7     9   ar
    31     9    10   ar
    32    10    11   ar
    33    11    12    2
#	Name:			CHEMBL384467
#	Creating user name:	trannguyen
#	Creation time:		Tue Feb  8 18:26:14 2022


#	Modifying user name:	trannguyen
#	Modification time:	Tue Feb  8 18:26:14 2022

@<TRIPOS>MOLECULE
CHEMBL384467
 31 34 0 0 0
SMALL
GASTEIGER

@<TRIPOS>ATOM
      1 C           3.0511   33.6374    7.3274 C.3     1  UNL1        0.0028
      2 C           3.9561   32.5301    7.8607 C.3     1  UNL1        0.0315
      3 C           5.2109   32.2930    7.0174 C.3     1  UNL1        0.0029
      4 C           6.2680   31.6516    7.9576 C.3     1  UNL1        0.0054
      5 C           7.6132   32.4270    7.8993 C.3     1  UNL1        0.0334
      6 C           8.2792   32.1703    6.5264 C.3     1  UNL1        0.0071
      7 C           9.6314   32.8571    6.3870 C.3     1  UNL1        0.0226
      8 C          10.5386   32.4511    7.5176 C.2     1  UNL1       -0.0354
      9 C          11.7212   31.8621    7.2670 C.2     1  UNL1        0.0339
     10 C          12.6141   31.4081    8.3534 C.2     1  UNL1        0.1948
     11 O          13.7033   30.9085    8.1188 O.2     1  UNL1       -0.2866
     12 C          12.1333   31.5856    9.7370 C.2     1  UNL1        0.0378
     13 C          10.9571   32.1738    9.9903 C.2     1  UNL1       -0.0171
     14 C           9.9974   32.7206    8.9300 C.3     1  UNL1        0.0638
     15 C           9.9810   34.2543    9.1342 C.3     1  UNL1        0.0112
     16 C           8.5668   32.0403    9.0578 C.3     1  UNL1        0.1644
     17 F           8.7615   30.6766    8.9635 F       1  UNL1       -0.2369
     18 C           7.8720   32.2801   10.4173 C.3     1  UNL1        0.1409
     19 O           7.6372   33.6554   10.6806 O.3     1  UNL1       -0.3817
     20 C           6.5514   31.5220   10.5518 C.3     1  UNL1        0.0347
     21 C           5.5774   31.5381    9.3493 C.3     1  UNL1        0.0315
     22 C           4.8727   30.1351    9.4228 C.3     1  UNL1        0.0028
     23 C           4.4775   32.6705    9.3195 C.3     1  UNL1        0.1413
     24 O           3.3723   32.3408   10.1610 O.3     1  UNL1       -0.3797
     25 H           7.8795   33.8208   11.6109 H       1  UNL1        0.2104
     26 H           3.5495   32.6307   11.0747 H       1  UNL1        0.2108
     27 C           4.9937   34.1206    9.5982 C.2     1  UNL1        0.2038
     28 O           5.8604   34.6693    8.9110 O.2     1  UNL1       -0.2910
     29 C           4.3917   34.8755   10.7874 C.3     1  UNL1        0.2044
     30 O           5.2383   34.9598   11.9157 O.3     1  UNL1       -0.3749
     31 H           5.2788   34.0658   12.3036 H       1  UNL1        0.2110
@<TRIPOS>BOND
     1     2     3    1
     2     2    23    1
     3     2     1    1
     4     3     4    1
     5     4     5    1
     6     4    21    1
     7     5     6    1
     8     5    16    1
     9     6     7    1
    10     7     8    1
    11     8     9    2
    12     8    14    1
    13     9    10    1
    14    10    12    1
    15    10    11    2
    16    12    13    2
    17    13    14    1
    18    14    16    1
    19    14    15    1
    20    16    18    1
    21    16    17    1
    22    18    20    1
    23    18    19    1
    24    19    25    1
    25    20    21    1
    26    21    23    1
    27    21    22    1
    28    23    27    1
    29    23    24    1
    30    24    26    1
    31    27    28    2
    32    27    29    1
    33    29    30    1
    34    30    31    1
#	Name:			CHEMBL386630
#	Creating user name:	trannguyen
#	Creation time:		Tue Feb  8 18:26:14 2022


#	Modifying user name:	trannguyen
#	Modification time:	Tue Feb  8 18:26:14 2022

@<TRIPOS>MOLECULE
CHEMBL386630
 22 25 0 0 0
SMALL
GASTEIGER

@<TRIPOS>ATOM
      1 C           5.4237   32.0992    6.0868 C.3     1  UNL1        0.0024
      2 C           4.1620   32.6904    5.4837 C.3     1  UNL1        0.0247
      3 C           3.2151   31.4222    5.2376 C.3     1  UNL1        0.0023
      4 C           2.4661   30.9221    6.5046 C.3     1  UNL1        0.0004
      5 C           1.9496   31.9508    7.6270 C.3     1  UNL1        0.0035
      6 C           2.7093   33.2525    7.5096 C.3     1  UNL1        0.0007
      7 C           3.9390   33.2375    8.4709 C.3     1  UNL1        0.0044
      8 C           4.3862   31.8837    9.0912 C.3     1  UNL1        0.0221
      9 C           3.3734   30.7436    9.1117 C.2     1  UNL1       -0.0420
     10 C           3.7159   29.4711    9.3604 C.2     1  UNL1        0.0289
     11 C           2.5976   28.8097   10.0767 C.2     1  UNL1        0.1725
     12 O           2.2486   27.7040    9.8178 O.2     1  UNL1       -0.2914
     13 C           1.9723   29.7310   11.1671 C.3     1  UNL1        0.0694
     14 C           1.8063   31.2655   10.6126 C.3     1  UNL1        0.0118
     15 C           1.8940   31.1700    9.0442 C.3     1  UNL1        0.0157
     16 C           0.5310   30.4004    8.8139 C.3     1  UNL1        0.0041
     17 C           3.1229   33.6612    6.0486 C.3     1  UNL1        0.0023
     18 C           2.3115   33.8781    4.5847 C.3     1  UNL1        0.0026
     19 C           3.4467   33.6596    3.4603 C.3     1  UNL1        0.0292
     20 C           4.6189   33.7035    4.3802 C.3     1  UNL1        0.1104
     21 O           5.9409   33.6254    3.9198 O.3     1  UNL1       -0.3845
     22 H           6.4492   34.1742    4.5607 H       1  UNL1        0.2103
@<TRIPOS>BOND
     1     2     3    1
     2     2    17    1
     3     2    20    1
     4     2     1    1
     5     3     4    1
     6     4     5    1
     7     5     6    1
     8     5    15    1
     9     6     7    1
    10     6    17    1
    11     7     8    1
    12     8     9    1
    13     9    10    2
    14     9    15    1
    15    10    11    1
    16    11    13    1
    17    11    12    2
    18    13    14    1
    19    14    15    1
    20    15    16    1
    21    17    18    1
    22    18    19    1
    23    19    20    1
    24    20    21    1
    25    21    22    1
#	Name:			CHEMBL38737
#	Creating user name:	trannguyen
#	Creation time:		Tue Feb  8 18:26:14 2022


#	Modifying user name:	trannguyen
#	Modification time:	Tue Feb  8 18:26:14 2022

@<TRIPOS>MOLECULE
CHEMBL38737
 6 5 0 0 0
SMALL
GASTEIGER

@<TRIPOS>ATOM
      1 C           3.8683   27.9312   10.1832 C.3     1  UNL1        0.0580
      2 C           2.4949   27.6471   10.7121 C.2     1  UNL1        0.0714
      3 N           2.2040   26.6106   11.4191 N.2     1  UNL1       -0.2969
      4 S           1.2385   28.7974   10.3366 S.3     1  UNL1       -0.1277
      5 H           3.0296   26.0226   11.5636 H       1  UNL1        0.1869
      6 H           1.9810   29.6526    9.6230 H       1  UNL1        0.1082
@<TRIPOS>BOND
     1     1     2    1
     2     2     3    2
     3     2     4    1
     4     3     5    1
     5     4     6    1
#	Name:			CHEMBL388590
#	Creating user name:	trannguyen
#	Creation time:		Tue Feb  8 18:26:14 2022


#	Modifying user name:	trannguyen
#	Modification time:	Tue Feb  8 18:26:14 2022

@<TRIPOS>MOLECULE
CHEMBL388590
 23 25 0 0 0
SMALL
GASTEIGER

@<TRIPOS>ATOM
      1 C           4.3466   32.3818    8.4678 C.2     1  UNL1        0.1983
      2 O           4.0686   33.4638    8.9863 O.2     1  UNL1       -0.2865
      3 C           4.6919   32.3748    7.0141 C.ar    1  UNL1        0.0402
      4 C           3.6597   32.1567    6.0895 C.ar    1  UNL1        0.0129
      5 C           3.9356   32.1291    4.7206 C.ar    1  UNL1        0.0688
      6 BR          2.5108   31.8288    3.5062 Br      1  UNL1       -0.0458
      7 C           5.2400   32.3166    4.2574 C.ar    1  UNL1        0.1459
      8 O           5.5297   32.2504    2.9203 O.3     1  UNL1       -0.5045
      9 C           6.2629   32.5749    5.1736 C.ar    1  UNL1        0.0688
     10 BR          8.0516   32.8505    4.6023 Br      1  UNL1       -0.0458
     11 C           5.9899   32.6256    6.5463 C.ar    1  UNL1        0.0129
     12 H           4.7061   32.0545    2.4370 H       1  UNL1        0.2922
     13 C           5.5309   30.5927    9.7875 C.ar    1  UNL1        0.1258
     14 O           5.2628   29.3656   10.3155 O.2     1  UNL1       -0.4577
     15 C           3.9281   29.1560   10.1929 C.ar    1  UNL1        0.1449
     16 C           3.2590   28.0015   10.5925 C.ar    1  UNL1        0.0375
     17 C           1.8711   27.9966   10.4336 C.ar    1  UNL1        0.0031
     18 C           1.2020   29.1164    9.9367 C.ar    1  UNL1        0.0002
     19 C           1.9076   30.2584    9.5271 C.ar    1  UNL1        0.0032
     20 C           3.3153   30.2618    9.6157 C.ar    1  UNL1        0.0403
     21 C           4.3814   31.1451    9.2348 C.ar    1  UNL1        0.0722
     22 C           7.1208   32.1702   10.8834 C.3     1  UNL1        0.0084
     23 C           6.9490   31.0316    9.8941 C.3     1  UNL1        0.0646
@<TRIPOS>BOND
     1    22    23    1
     2    23    13    1
     3    13    14   ar
     4    13    21   ar
     5    14    15   ar
     6    15    16   ar
     7    15    20   ar
     8    16    17   ar
     9    17    18   ar
    10    18    19   ar
    11    19    20   ar
    12    20    21   ar
    13    21     1    1
    14     1     2    2
    15     1     3    1
    16     3     4   ar
    17     3    11   ar
    18     4     5   ar
    19     5     6    1
    20     5     7   ar
    21     7     8    1
    22     7     9   ar
    23     8    12    1
    24     9    10    1
    25     9    11   ar
#	Name:			CHEMBL389621
#	Creating user name:	trannguyen
#	Creation time:		Tue Feb  8 18:26:14 2022


#	Modifying user name:	trannguyen
#	Modification time:	Tue Feb  8 18:26:14 2022

@<TRIPOS>MOLECULE
CHEMBL389621
 29 32 0 0 0
SMALL
GASTEIGER

@<TRIPOS>ATOM
      1 C           5.7971   32.1326    6.3212 C.3     1  UNL1        0.0028
      2 C           4.7924   32.4509    5.1960 C.3     1  UNL1        0.0313
      3 C           4.9821   31.4171    4.0391 C.3     1  UNL1        0.0319
      4 C           6.1798   31.6721    3.1107 C.3     1  UNL1        0.1108
      5 O           7.3832   31.3639    3.7895 O.3     1  UNL1       -0.3845
      6 C           6.1782   33.1083    2.5334 C.3     1  UNL1        0.0304
      7 C           6.0436   34.1793    3.6490 C.3     1  UNL1        0.0030
      8 C           7.3688   34.4899    4.3847 C.3     1  UNL1        0.0044
      9 C           8.6415   34.1545    3.6108 C.3     1  UNL1        0.0221
     10 C           8.4294   34.3392    2.1389 C.2     1  UNL1       -0.0419
     11 C           9.1408   35.2598    1.4638 C.2     1  UNL1        0.0289
     12 C           8.8939   35.5316    0.0312 C.2     1  UNL1        0.1725
     13 O           9.6786   36.2545   -0.5876 O.2     1  UNL1       -0.2914
     14 C           7.7013   34.8967   -0.6377 C.3     1  UNL1        0.0694
     15 C           6.6915   34.3531    0.3721 C.3     1  UNL1        0.0119
     16 C           7.3310   33.4869    1.5029 C.3     1  UNL1        0.0179
     17 C           7.9705   32.2370    0.8569 C.3     1  UNL1        0.0041
     18 C           4.8958   33.8948    4.6478 C.3     1  UNL1        0.0028
     19 C           3.5017   34.1628    4.0340 C.3     1  UNL1        0.0029
     20 C           2.5214   33.1751    4.6731 C.3     1  UNL1        0.0342
     21 C           3.3184   32.4123    5.7396 C.3     1  UNL1        0.1413
     22 O           2.8485   31.0661    5.8032 O.3     1  UNL1       -0.3797
     23 H           7.3840   30.4094    3.9782 H       1  UNL1        0.2103
     24 H           3.4881   30.5444    6.3200 H       1  UNL1        0.2108
     25 C           3.0556   33.1049    7.1121 C.2     1  UNL1        0.2038
     26 O           3.4116   34.2571    7.3684 O.2     1  UNL1       -0.2910
     27 C           2.2816   32.2856    8.1519 C.3     1  UNL1        0.2044
     28 O           0.9076   32.1187    7.8372 O.3     1  UNL1       -0.3749
     29 H           0.5801   32.9867    7.5362 H       1  UNL1        0.2110
@<TRIPOS>BOND
     1     2     1    1
     2     2     3    1
     3     2    18    1
     4     2    21    1
     5     3     4    1
     6     4     6    1
     7     4     5    1
     8     5    23    1
     9     6     7    1
    10     6    16    1
    11     7     8    1
    12     7    18    1
    13     8     9    1
    14     9    10    1
    15    10    11    2
    16    10    16    1
    17    11    12    1
    18    12    13    2
    19    12    14    1
    20    14    15    1
    21    15    16    1
    22    16    17    1
    23    18    19    1
    24    19    20    1
    25    20    21    1
    26    21    22    1
    27    21    25    1
    28    22    24    1
    29    25    26    2
    30    25    27    1
    31    27    28    1
    32    28    29    1
#	Name:			CHEMBL38
#	Creating user name:	trannguyen
#	Creation time:		Tue Feb  8 18:26:14 2022


#	Modifying user name:	trannguyen
#	Modification time:	Tue Feb  8 18:26:14 2022

@<TRIPOS>MOLECULE
CHEMBL38
 23 23 0 0 0
SMALL
GASTEIGER

@<TRIPOS>ATOM
      1 C           7.6380   31.9337   10.2134 C.2     1  UNL1       -0.0219
      2 C           7.2628   32.4093   11.5933 C.3     1  UNL1        0.0310
      3 C           6.9773   30.9766    9.5356 C.2     1  UNL1       -0.0043
      4 C           9.9757   32.7173   10.1937 C.2     1  UNL1       -0.0052
      5 C           8.7719   32.6064    9.6071 C.2     1  UNL1       -0.0046
      6 C          10.3435   35.6383   10.5669 C.3     1  UNL1        0.0260
      7 C          11.2505   34.7644    9.7306 C.2     1  UNL1       -0.0479
      8 C          11.1094   33.4205    9.5981 C.2     1  UNL1       -0.0307
      9 C          12.1292   32.5531    8.8227 C.3     1  UNL1        0.0183
     10 C          11.5076   32.1135    7.4777 C.3     1  UNL1        0.0043
     11 C          12.5660   31.2858    9.5956 C.3     1  UNL1        0.0043
     12 C          13.4336   33.3491    8.5471 C.3     1  UNL1        0.0044
     13 C          13.1537   34.7501    8.0326 C.3     1  UNL1        0.0047
     14 C          12.3663   35.5391    9.0678 C.3     1  UNL1        0.0217
     15 C           5.8340   30.2525   10.0428 C.2     1  UNL1       -0.0006
     16 C           4.6356   30.2761    9.4438 C.2     1  UNL1       -0.0041
     17 C           3.4277   29.5766    9.8699 C.2     1  UNL1       -0.0154
     18 C           2.0655   30.1602    9.5647 C.3     1  UNL1        0.0312
     19 C           3.5820   28.4085   10.5321 C.2     1  UNL1        0.0774
     20 C           2.4854   27.5632   11.0434 C.2     1  UNL1        0.3379
     21 O           1.8585   27.7529   12.0716 O.2     1  UNL1       -0.2451
     22 O           2.2374   26.5210   10.2198 O.3     1  UNL1       -0.4771
     23 H           2.8492   26.4257    9.4681 H       1  UNL1        0.2954
@<TRIPOS>BOND
     1     6     7    1
     2     7     8    2
     3     7    14    1
     4     8     4    1
     5     8     9    1
     6     4     5    2
     7     5     1    1
     8     1     2    1
     9     1     3    2
    10     3    15    1
    11    15    16    2
    12    16    17    1
    13    17    18    1
    14    17    19    2
    15    19    20    1
    16    20    21    2
    17    20    22    1
    18    22    23    1
    19     9    10    1
    20     9    11    1
    21     9    12    1
    22    12    13    1
    23    13    14    1
#	Name:			CHEMBL395110
#	Creating user name:	trannguyen
#	Creation time:		Tue Feb  8 18:26:14 2022


#	Modifying user name:	trannguyen
#	Modification time:	Tue Feb  8 18:26:14 2022

@<TRIPOS>MOLECULE
CHEMBL395110
 22 25 0 0 0
SMALL
GASTEIGER

@<TRIPOS>ATOM
      1 N           3.2566   31.7248    9.0001 N.pl3   1  UNL1       -0.2861
      2 C           2.3906   30.6568    9.3615 C.ar    1  UNL1        0.0576
      3 C           0.9889   30.8110    9.3198 C.ar    1  UNL1        0.0153
      4 C           0.1191   29.7704    9.6635 C.ar    1  UNL1        0.0013
      5 C           0.6290   28.5507   10.0796 C.ar    1  UNL1        0.0006
      6 C           2.0077   28.3805   10.1705 C.ar    1  UNL1        0.0077
      7 C           2.8863   29.4250    9.8304 C.ar    1  UNL1        0.0431
      8 S           4.6269   29.0778    9.9781 S.3     1  UNL1       -0.0844
      9 C           5.3262   30.7143    9.9014 C.ar    1  UNL1        0.0431
     10 C           6.6635   30.8443   10.3182 C.ar    1  UNL1        0.0077
     11 C           7.3084   32.0771   10.2705 C.ar    1  UNL1        0.0006
     12 C           6.6205   33.1886    9.8091 C.ar    1  UNL1        0.0013
     13 C           5.2914   33.0644    9.3891 C.ar    1  UNL1        0.0153
     14 C           4.6155   31.8259    9.4090 C.ar    1  UNL1        0.0576
     15 C           2.8764   32.5029    7.7929 C.3     1  UNL1        0.0969
     16 C           5.9762   31.8879    4.5635 C.3     1  UNL1        0.0896
     17 N           4.7926   32.7374    4.4511 N.3     1  UNL1       -0.2715
     18 C           3.7704   32.1521    3.5755 C.3     1  UNL1        0.0721
     19 C           3.0248   30.9723    4.1974 C.3     1  UNL1        0.0174
     20 C           2.4298   31.3410    5.5531 C.3     1  UNL1        0.0045
     21 C           3.4904   31.9481    6.4846 C.3     1  UNL1        0.0362
     22 C           4.2317   33.0920    5.7610 C.3     1  UNL1        0.0738
@<TRIPOS>BOND
     1    16    17    1
     2    17    18    1
     3    17    22    1
     4    18    19    1
     5    19    20    1
     6    20    21    1
     7    21    15    1
     8    21    22    1
     9    15     1    1
    10     1     2    1
    11     1    14    1
    12     2     3   ar
    13     2     7   ar
    14     3     4   ar
    15     4     5   ar
    16     5     6   ar
    17     6     7   ar
    18     7     8    1
    19     8     9    1
    20     9    10   ar
    21     9    14   ar
    22    10    11   ar
    23    11    12   ar
    24    12    13   ar
    25    13    14   ar
#	Name:			CHEMBL398440
#	Creating user name:	trannguyen
#	Creation time:		Tue Feb  8 18:26:14 2022


#	Modifying user name:	trannguyen
#	Modification time:	Tue Feb  8 18:26:14 2022

@<TRIPOS>MOLECULE
CHEMBL398440
 11 11 0 0 0
SMALL
GASTEIGER

@<TRIPOS>ATOM
      1 C           5.3392   29.8970    9.8284 C.3     1  UNL1        0.0320
      2 C           3.9275   29.3983    9.9769 C.ar    1  UNL1       -0.0086
      3 C           3.7003   28.1726   10.6233 C.ar    1  UNL1        0.0332
      4 C           2.4027   27.6948   10.7716 C.ar    1  UNL1        0.1331
      5 O           2.1491   26.5082   11.3933 O.3     1  UNL1       -0.5055
      6 C           1.3169   28.4142   10.2891 C.ar    1  UNL1        0.0332
      7 C           1.5120   29.6416    9.6391 C.ar    1  UNL1       -0.0086
      8 C           0.3161   30.3968    9.1288 C.3     1  UNL1        0.0320
      9 C           2.8254   30.1282    9.4853 C.ar    1  UNL1        0.0499
     10 CL          3.0899   31.6442    8.6808 Cl      1  UNL1       -0.0829
     11 H           2.9913   26.1140   11.6734 H       1  UNL1        0.2922
@<TRIPOS>BOND
     1     1     2    1
     2     2     3   ar
     3     2     9   ar
     4     3     4   ar
     5     4     5    1
     6     4     6   ar
     7     5    11    1
     8     6     7   ar
     9     7     8    1
    10     7     9   ar
    11     9    10    1
#	Name:			CHEMBL3986260
#	Creating user name:	trannguyen
#	Creation time:		Tue Feb  8 18:26:14 2022


#	Modifying user name:	trannguyen
#	Modification time:	Tue Feb  8 18:26:14 2022

@<TRIPOS>MOLECULE
CHEMBL3986260
 32 34 0 0 0
SMALL
GASTEIGER

@<TRIPOS>ATOM
      1 C           3.9586   32.7836    7.8687 C.3     1  UNL1        0.1726
      2 C           3.2930   33.1167    6.5117 C.3     1  UNL1        0.0467
      3 C           3.9903   32.4514    5.3180 C.3     1  UNL1        0.0344
      4 C           3.2840   32.8094    4.0070 C.3     1  UNL1        0.0030
      5 C           5.4824   32.8380    5.2913 C.3     1  UNL1        0.1287
      6 O           6.1840   31.9318    4.4463 O.3     1  UNL1       -0.3804
      7 C           6.1202   32.7543    6.6575 C.2     1  UNL1       -0.0167
      8 C           7.2875   33.3644    6.9332 C.2     1  UNL1       -0.0036
      9 C           7.9578   33.2667    8.2597 C.3     1  UNL1        0.1319
     10 O           7.5697   34.4207    8.9989 O.3     1  UNL1       -0.3801
     11 C           7.5848   31.9748    9.0163 C.3     1  UNL1        0.0316
     12 C           8.2972   30.7691    8.3871 C.3     1  UNL1        0.0029
     13 C           6.0371   31.8080    9.1089 C.3     1  UNL1        0.0101
     14 C           5.3184   32.0192    7.7206 C.3     1  UNL1        0.0605
     15 H           5.9312   32.1358    3.5314 H       1  UNL1        0.2108
     16 H           8.0509   34.3869    9.8484 H       1  UNL1        0.2108
     17 O           4.2164   34.0051    8.6073 O.3     1  UNL1       -0.4519
     18 C           3.6655   34.1449    9.8404 C.2     1  UNL1        0.3163
     19 O           4.2874   34.1937   10.8921 O.2     1  UNL1       -0.2501
     20 C           2.1665   34.3587    9.7048 C.3     1  UNL1        0.0991
     21 C           1.4062   33.2212   10.3789 C.3     1  UNL1        0.0116
     22 C           0.2882   35.8448   10.5929 C.3     1  UNL1        0.0006
     23 C           1.7812   35.7170   10.3100 C.3     1  UNL1        0.0111
     24 C           5.5928   30.4511    9.7431 C.3     1  UNL1        0.0042
     25 C           4.0952   30.3809   10.1059 C.3     1  UNL1        0.0440
     26 C           3.3111   29.3236    9.2928 C.3     1  UNL1        0.1735
     27 C           1.9029   29.7905    8.9000 C.3     1  UNL1        0.0698
     28 C           0.9475   29.6434   10.0378 C.2     1  UNL1       -0.0158
     29 C           1.1591   28.7274   10.9889 C.2     1  UNL1        0.0774
     30 C           2.3032   27.8021   10.9267 C.2     1  UNL1        0.3410
     31 O           2.3500   26.8276   11.6654 O.2     1  UNL1       -0.2449
     32 O           3.2640   28.0653   10.0054 O.3     1  UNL1       -0.4489
@<TRIPOS>BOND
     1    22    23    1
     2    20    21    1
     3    20    18    1
     4    20    23    1
     5    18    19    2
     6    18    17    1
     7     1     2    1
     8     1    14    1
     9     1    17    1
    10     2     3    1
    11     3     5    1
    12     3     4    1
    13     5     7    1
    14     5     6    1
    15     6    15    1
    16     7     8    2
    17     7    14    1
    18     8     9    1
    19     9    11    1
    20     9    10    1
    21    10    16    1
    22    11    13    1
    23    11    12    1
    24    13    14    1
    25    13    24    1
    26    24    25    1
    27    26    27    1
    28    26    32    1
    29    26    25    1
    30    27    28    1
    31    28    29    2
    32    29    30    1
    33    30    31    2
    34    30    32    1
#	Name:			CHEMBL3
#	Creating user name:	trannguyen
#	Creation time:		Tue Feb  8 18:26:14 2022


#	Modifying user name:	trannguyen
#	Modification time:	Tue Feb  8 18:26:14 2022

@<TRIPOS>MOLECULE
CHEMBL3
 12 13 0 0 0
SMALL
GASTEIGER

@<TRIPOS>ATOM
      1 C           1.6498   32.7315   10.3190 C.3     1  UNL1        0.0899
      2 N           1.7536   32.4241    8.9035 N.3     1  UNL1       -0.2691
      3 C           3.0826   32.6574    8.3554 C.3     1  UNL1        0.0724
      4 C           3.0028   32.0228    6.9773 C.3     1  UNL1        0.0191
      5 C           1.9054   30.9642    7.0733 C.3     1  UNL1        0.0220
      6 C           1.3315   31.0749    8.4941 C.3     1  UNL1        0.0817
      7 C           1.7351   29.9335    9.4078 C.ar    1  UNL1        0.0114
      8 C           3.0600   29.5644    9.6687 C.ar    1  UNL1        0.0002
      9 C           3.3330   28.5060   10.5326 C.ar    1  UNL1        0.0204
     10 C           2.2696   27.8410   11.1163 C.ar    1  UNL1        0.0989
     11 N           0.9782   28.1613   10.8980 N.ar    1  UNL1       -0.2426
     12 C           0.7446   29.1948   10.0562 C.ar    1  UNL1        0.0959
@<TRIPOS>BOND
     1     1     2    1
     2     2     3    1
     3     2     6    1
     4     3     4    1
     5     4     5    1
     6     5     6    1
     7     6     7    1
     8     7     8   ar
     9     7    12   ar
    10     8     9   ar
    11     9    10   ar
    12    10    11   ar
    13    11    12   ar
#	Name:			CHEMBL402794
#	Creating user name:	trannguyen
#	Creation time:		Tue Feb  8 18:26:14 2022


#	Modifying user name:	trannguyen
#	Modification time:	Tue Feb  8 18:26:14 2022

@<TRIPOS>MOLECULE
CHEMBL402794
 28 28 0 0 0
SMALL
GASTEIGER

@<TRIPOS>ATOM
      1 C           4.3310   32.6307    6.2229 C.ar    1  UNL1        0.0819
      2 C           5.6708   32.4661    5.7158 C.ar    1  UNL1        0.0066
      3 C           5.9981   31.7892    4.5041 C.ar    1  UNL1        0.0002
      4 C           5.0077   31.2398    3.7403 C.ar    1  UNL1        0.0002
      5 C           3.7281   31.3216    4.2495 C.ar    1  UNL1        0.0066
      6 C           3.3192   31.9909    5.4458 C.ar    1  UNL1        0.0819
      7 C           1.7821   31.8589    5.7035 C.2     1  UNL1        0.3414
      8 O           0.9032   32.1724    4.9887 O.2     1  UNL1       -0.2449
      9 O           1.6537   31.1200    6.8995 O.3     1  UNL1       -0.4454
     10 C           0.8521   31.5837    8.0190 C.3     1  UNL1        0.2086
     11 C           1.2706   30.9307    9.3869 C.3     1  UNL1        0.0439
     12 C           1.7764   31.9199   10.4675 C.3     1  UNL1        0.0037
     13 C           1.3326   33.3736   10.3593 C.3     1  UNL1        0.0001
     14 C           2.2758   29.7358    9.2494 C.3     1  UNL1        0.0037
     15 C           3.6786   29.9375    9.8284 C.3     1  UNL1        0.0001
     16 C           4.4286   28.6584   10.1793 C.3     1  UNL1        0.0000
     17 C           3.6252   27.3610   10.0417 C.3     1  UNL1        0.0000
     18 C           4.1056   33.2976    7.6146 C.2     1  UNL1        0.3414
     19 O           3.5390   34.3921    7.7779 O.2     1  UNL1       -0.2449
     20 O           4.5876   32.5876    8.7129 O.3     1  UNL1       -0.4454
     21 C           5.7835   33.1399    9.4119 C.3     1  UNL1        0.2086
     22 C           6.6715   32.2613   10.4085 C.3     1  UNL1        0.0439
     23 C           7.2719   31.0715    9.6210 C.3     1  UNL1        0.0037
     24 C           8.0561   31.4694    8.3705 C.3     1  UNL1        0.0001
     25 C           7.8664   32.9413   11.2390 C.3     1  UNL1        0.0037
     26 C           8.3303   34.3718   10.8890 C.3     1  UNL1        0.0001
     27 C          10.5595   32.9912   10.7731 C.3     1  UNL1        0.0000
     28 C           9.8365   34.3004   10.8299 C.3     1  UNL1        0.0000
@<TRIPOS>BOND
     1    27    28    1
     2    28    26    1
     3    26    25    1
     4    22    23    1
     5    22    21    1
     6    22    25    1
     7    23    24    1
     8    21    20    1
     9    20    18    1
    10    18    19    2
    11    18     1    1
    12     1     2   ar
    13     1     6   ar
    14     2     3   ar
    15     3     4   ar
    16     4     5   ar
    17     5     6   ar
    18     6     7    1
    19     7     8    2
    20     7     9    1
    21     9    10    1
    22    11    12    1
    23    11    14    1
    24    11    10    1
    25    12    13    1
    26    14    15    1
    27    15    16    1
    28    16    17    1
#	Name:			CHEMBL403
#	Creating user name:	trannguyen
#	Creation time:		Tue Feb  8 18:26:14 2022


#	Modifying user name:	trannguyen
#	Modification time:	Tue Feb  8 18:26:14 2022

@<TRIPOS>MOLECULE
CHEMBL403
 16 17 0 0 0
SMALL
GASTEIGER

@<TRIPOS>ATOM
      1 C           5.3081   33.6611    3.0029 C.3     1  UNL1        0.0260
      2 C           6.6038   32.8288    3.1007 C.3     1  UNL1        0.1394
      3 C           6.2835   31.5964    3.9560 C.3     1  UNL1        0.0260
      4 C           7.1857   32.5471    1.6965 C.3     1  UNL1        0.1960
      5 N           8.0377   33.6951    1.3238 N.am    1  UNL1       -0.2518
      6 C           7.4517   34.8304    0.8256 C.2     1  UNL1        0.2307
      7 O           6.5110   34.9493    0.0801 O.2     1  UNL1       -0.2747
      8 C           8.2528   35.7349    1.7683 C.3     1  UNL1        0.1296
      9 C           8.7358   34.4347    2.4153 C.3     1  UNL1        0.2153
     10 S           7.9175   33.8145    3.8921 S.O2    1  UNL1        0.0051
     11 O           7.3206   34.9179    4.6183 O.2     1  UNL1       -0.1715
     12 O           8.8320   32.9092    4.5604 O.2     1  UNL1       -0.1715
     13 C           8.0132   31.2601    1.5602 C.2     1  UNL1        0.3338
     14 O           9.2305   31.2125    1.6423 O.2     1  UNL1       -0.2484
     15 O           7.2655   30.1384    1.4247 O.3     1  UNL1       -0.4790
     16 H           6.3111   30.3350    1.5138 H       1  UNL1        0.2951
@<TRIPOS>BOND
     1     1     2    1
     2     2     3    1
     3     2     4    1
     4     2    10    1
     5     4     5    1
     6     4    13    1
     7    13    14    2
     8    13    15    1
     9    15    16    1
    10     5     6   am
    11     5     9    1
    12     6     7    2
    13     6     8    1
    14     8     9    1
    15     9    10    1
    16    10    11    2
    17    10    12    2
#	Name:			CHEMBL404520
#	Creating user name:	trannguyen
#	Creation time:		Tue Feb  8 18:26:14 2022


#	Modifying user name:	trannguyen
#	Modification time:	Tue Feb  8 18:26:14 2022

@<TRIPOS>MOLECULE
CHEMBL404520
 40 43 0 0 0
SMALL
GASTEIGER

@<TRIPOS>ATOM
      1 C           9.7426   32.7277    5.6859 C.3     1  UNL1        0.1180
      2 C          10.8467   32.2286    6.6245 C.2     1  UNL1        0.1328
      3 O          11.7833   31.4100    6.0024 O.2     1  UNL1       -0.5082
      4 C          10.8829   32.5510    7.9371 C.2     1  UNL1        0.1212
      5 C           9.7744   33.3954    8.4769 C.2     1  UNL1        0.2108
      6 O           9.9935   34.1382    9.4417 O.2     1  UNL1       -0.2882
      7 C           8.3880   33.3521    7.7695 C.3     1  UNL1        0.1943
      8 O           8.0331   34.7084    7.4810 O.3     1  UNL1       -0.3729
      9 C           7.2448   32.8285    8.6328 C.2     1  UNL1        0.1414
     10 O           7.3885   33.0437    9.9931 O.2     1  UNL1       -0.5072
     11 C           6.1621   32.2175    8.0929 C.2     1  UNL1        0.0512
     12 C           5.0849   31.7187    8.9774 C.2     1  UNL1        0.1971
     13 O           5.2910   31.5400   10.1785 O.2     1  UNL1       -0.2867
     14 C           3.7442   31.4532    8.3974 C.ar    1  UNL1        0.0714
     15 C           2.7635   30.9037    9.2529 C.ar    1  UNL1        0.1365
     16 O           3.0069   30.5114   10.5430 O.3     1  UNL1       -0.5054
     17 C           1.4545   30.7396    8.8308 C.ar    1  UNL1        0.0376
     18 C           1.0940   31.1880    7.5714 C.ar    1  UNL1        0.0143
     19 C           2.0516   31.7491    6.7131 C.ar    1  UNL1        0.0562
     20 CL          1.3861   32.4486    5.2769 Cl      1  UNL1       -0.0825
     21 C           3.4226   31.8220    7.0660 C.ar    1  UNL1        0.0186
     22 C           4.5249   32.3173    6.1177 C.3     1  UNL1        0.1118
     23 C           4.3921   31.7726    4.6741 C.3     1  UNL1        0.0343
     24 O           4.4274   33.7409    6.0730 O.3     1  UNL1       -0.3823
     25 C           5.9660   31.9308    6.6208 C.3     1  UNL1        0.0569
     26 C           7.1096   32.5392    5.7522 C.3     1  UNL1        0.0122
     27 C           8.4466   32.4885    6.5003 C.3     1  UNL1        0.0611
     28 H          12.4630   31.1443    6.6649 H       1  UNL1        0.2918
     29 H           8.0857   35.1737    8.3395 H       1  UNL1        0.2113
     30 H           6.6540   32.5953   10.4678 H       1  UNL1        0.2918
     31 H           3.9182   30.7862   10.7877 H       1  UNL1        0.2922
     32 H           3.5462   33.9755    5.7297 H       1  UNL1        0.2107
     33 C          12.0423   32.1193    8.7632 C.2     1  UNL1        0.2483
     34 N          12.7636   33.0950    9.3688 N.am    1  UNL1       -0.3252
     35 O          12.3479   30.9357    8.8817 O.2     1  UNL1       -0.2702
     36 H          13.6033   32.8468    9.8726 H       1  UNL1        0.1453
     37 H          12.5770   34.0812    9.1858 H       1  UNL1        0.1453
     38 C          11.5250   34.2560    5.0035 C.3     1  UNL1        0.0900
     39 N          10.0747   34.0903    5.2038 N.3     1  UNL1       -0.2653
     40 C           9.4004   34.4529    3.9575 C.3     1  UNL1        0.0900
@<TRIPOS>BOND
     1    38    39    1
     2    39    40    1
     3    39     1    1
     4     1     2    1
     5     1    27    1
     6     2     4    2
     7     2     3    1
     8     3    28    1
     9     4     5    1
    10     4    33    1
    11    33    34   am
    12    33    35    2
    13    34    36    1
    14    34    37    1
    15     5     7    1
    16     5     6    2
    17     7     9    1
    18     7    27    1
    19     7     8    1
    20     8    29    1
    21     9    11    2
    22     9    10    1
    23    10    30    1
    24    11    12    1
    25    11    25    1
    26    12    14    1
    27    12    13    2
    28    14    15   ar
    29    14    21   ar
    30    15    17   ar
    31    15    16    1
    32    16    31    1
    33    17    18   ar
    34    18    19   ar
    35    19    21   ar
    36    19    20    1
    37    21    22    1
    38    22    25    1
    39    22    24    1
    40    22    23    1
    41    24    32    1
    42    25    26    1
    43    26    27    1
#	Name:			CHEMBL404811
#	Creating user name:	trannguyen
#	Creation time:		Tue Feb  8 18:26:14 2022


#	Modifying user name:	trannguyen
#	Modification time:	Tue Feb  8 18:26:14 2022

@<TRIPOS>MOLECULE
CHEMBL404811
 102 112 0 0 0
SMALL
GASTEIGER

@<TRIPOS>ATOM
      1 C          12.2113   32.8545   -1.5514 C.3     1  UNL1        0.2662
      2 O          13.1041   33.1556   -2.6041 O.3     1  UNL1       -0.3260
      3 C          12.5784   32.7183   -3.8579 C.3     1  UNL1        0.1761
      4 C          11.2941   33.4799   -4.1861 C.3     1  UNL1        0.1698
      5 O          11.5378   34.8925   -4.2624 O.3     1  UNL1       -0.3794
      6 C          10.2141   33.2059   -3.1379 C.3     1  UNL1        0.1791
      7 C          10.7580   33.3848   -1.6934 C.3     1  UNL1        0.2033
      8 H          10.7910   35.2504   -4.7859 H       1  UNL1        0.2105
      9 C          13.6116   32.9030   -4.9698 C.3     1  UNL1        0.1693
     10 O          14.9214   32.8626   -4.4030 O.3     1  UNL1       -0.3794
     11 H          15.5562   32.9299   -5.1406 H       1  UNL1        0.2105
     12 O          12.7364   33.2903   -0.3003 O.3     1  UNL1       -0.3259
     13 C          14.2511   34.3725    2.5395 C.3     1  UNL1        0.2657
     14 O          13.3594   35.1448    1.7152 O.3     1  UNL1       -0.3260
     15 C          13.8204   35.3358    0.3697 C.3     1  UNL1        0.1765
     16 C          13.9998   33.9756   -0.3408 C.3     1  UNL1        0.1766
     17 C          15.0961   33.2757    0.4477 C.3     1  UNL1        0.1719
     18 O          15.5119   32.0411   -0.1533 O.3     1  UNL1       -0.3794
     19 C          14.6281   33.0297    1.8801 C.3     1  UNL1        0.1964
     20 O          15.7093   32.3607    2.5398 O.3     1  UNL1       -0.3775
     21 H          15.0217   31.3337    0.2766 H       1  UNL1        0.2105
     22 H          16.0669   31.7162    1.8992 H       1  UNL1        0.2106
     23 C          12.8487   36.2381   -0.3730 C.3     1  UNL1        0.1693
     24 O          11.5405   36.0502    0.1797 O.3     1  UNL1       -0.3794
     25 H          10.9156   36.4257   -0.4708 H       1  UNL1        0.2105
     26 O          13.5902   34.2135    3.7939 O.3     1  UNL1       -0.3287
     27 C           6.6471   36.1954    9.5384 C.3     1  UNL1        0.0051
     28 C           6.9686   34.8635   10.1775 C.3     1  UNL1        0.0540
     29 C           7.7304   33.8921    9.3297 C.3     1  UNL1        0.0345
     30 C           7.9570   32.8151   10.3497 C.3     1  UNL1        0.1443
     31 O           6.6571   32.6404   10.9603 O.3     1  UNL1       -0.3343
     32 C           5.8615   33.8712   10.6544 C.3     1  UNL1        0.1869
     33 C           4.7919   33.3592    9.6603 C.3     1  UNL1        0.0563
     34 C           3.8348   34.4297    9.1748 C.3     1  UNL1        0.0075
     35 C           3.5554   35.4601   10.2683 C.3     1  UNL1        0.0299
     36 C           2.1336   35.9975   10.1483 C.3     1  UNL1        0.0026
     37 C           3.8824   34.8851   11.6540 C.3     1  UNL1        0.1446
     38 O           5.2369   34.4298   11.8159 O.3     1  UNL1       -0.3343
     39 C           8.5804   31.7306    9.4694 C.3     1  UNL1        0.1375
     40 O           7.5686   31.0890    8.6897 O.3     1  UNL1       -0.3820
     41 C           9.5573   32.5508    8.5146 C.3     1  UNL1        0.0294
     42 C          11.0409   32.3116    8.9345 C.3     1  UNL1        0.0024
     43 C          11.6634   31.0649    8.2678 C.3     1  UNL1        0.0001
     44 C          12.2948   31.3058    6.8924 C.3     1  UNL1        0.0001
     45 C          13.2634   32.5046    6.8896 C.3     1  UNL1        0.0026
     46 C          13.9841   32.6539    5.5287 C.3     1  UNL1        0.0322
     47 C          14.3489   34.0741    5.0148 C.3     1  UNL1        0.1445
     48 C          14.1267   35.2515    6.0055 C.3     1  UNL1        0.1376
     49 O          15.3209   36.0308    6.1308 O.3     1  UNL1       -0.3820
     50 C          13.6688   34.8687    7.4112 C.3     1  UNL1        0.0318
     51 C          12.5642   33.7922    7.3799 C.3     1  UNL1        0.0025
     52 C          11.4875   34.2131    6.3789 C.3     1  UNL1        0.0001
     53 C          11.9872   33.5223    8.8185 C.3     1  UNL1        0.0002
     54 C          11.3475   34.6772    9.5904 C.3     1  UNL1        0.0000
     55 C           9.9716   35.1305    9.1265 C.3     1  UNL1        0.0002
     56 C           9.0221   34.0646    8.5425 C.3     1  UNL1        0.0048
     57 C           8.4853   34.5404    7.1482 C.3     1  UNL1        0.0002
     58 H           6.8611   30.8549    9.3203 H       1  UNL1        0.2104
     59 H          15.6284   36.2079    5.2116 H       1  UNL1        0.2104
     60 O           9.0870   34.0914   -3.2950 O.3     1  UNL1       -0.3259
     61 C           8.8187   34.6055   -4.6089 C.3     1  UNL1        0.2658
     62 O           8.8343   36.0243   -4.6549 O.3     1  UNL1       -0.3260
     63 C           8.4736   36.5417   -5.9411 C.3     1  UNL1        0.1765
     64 C           7.0246   36.2102   -6.3098 C.3     1  UNL1        0.1694
     65 O           6.7366   36.7644   -7.6111 O.3     1  UNL1       -0.3794
     66 C           6.8218   34.6728   -6.2365 C.3     1  UNL1        0.1715
     67 O           5.4167   34.3632   -6.3031 O.3     1  UNL1       -0.3794
     68 C           7.3811   34.1240   -4.9047 C.3     1  UNL1        0.1964
     69 O           7.3630   32.6911   -4.8205 O.3     1  UNL1       -0.3775
     70 H           6.3598   37.6494   -7.4606 H       1  UNL1        0.2105
     71 H           5.3306   33.4117   -6.0908 H       1  UNL1        0.2105
     72 H           7.9275   32.5094   -4.0328 H       1  UNL1        0.2106
     73 O          10.0240   32.5784   -0.7415 O.3     1  UNL1       -0.3233
     74 C           9.0203   33.1891    0.0527 C.3     1  UNL1        0.2658
     75 O           9.5852   34.1298    0.9521 O.3     1  UNL1       -0.3260
     76 C           8.6616   34.6730    1.8644 C.3     1  UNL1        0.1761
     77 C           8.1523   33.5439    2.7220 C.3     1  UNL1        0.1698
     78 O           9.2695   32.9005    3.3349 O.3     1  UNL1       -0.3794
     79 C           7.4324   32.4445    1.9500 C.3     1  UNL1        0.1787
     80 C           8.2850   32.0193    0.7473 C.3     1  UNL1        0.1968
     81 O           7.4222   31.3628   -0.2049 O.3     1  UNL1       -0.3775
     82 H           8.8921   32.0677    3.7047 H       1  UNL1        0.2105
     83 H           7.0601   30.6081    0.2918 H       1  UNL1        0.2106
     84 C           9.3880   35.7605    2.6735 C.3     1  UNL1        0.1693
     85 O          10.7370   35.3854    2.9254 O.3     1  UNL1       -0.3794
     86 H          11.1958   35.4796    2.0671 H       1  UNL1        0.2105
     87 O           7.3135   31.2497    2.7691 O.3     1  UNL1       -0.3259
     88 C           6.2119   31.2741    3.6880 C.3     1  UNL1        0.2658
     89 O           5.0729   31.9066    3.1405 O.3     1  UNL1       -0.3260
     90 C           3.9270   31.6934    3.9186 C.3     1  UNL1        0.1761
     91 C           4.0673   32.4788    5.2232 C.3     1  UNL1        0.1694
     92 O           2.9592   32.1610    6.0559 O.3     1  UNL1       -0.3794
     93 C           5.3870   32.1117    5.9292 C.3     1  UNL1        0.1715
     94 O           5.6928   33.0702    6.9494 O.3     1  UNL1       -0.3794
     95 C           6.5710   32.0705    4.9456 C.3     1  UNL1        0.1964
     96 O           7.7163   31.4806    5.5610 O.3     1  UNL1       -0.3775
     97 H           2.1896   32.1369    5.4446 H       1  UNL1        0.2105
     98 H           6.6053   32.8513    7.2124 H       1  UNL1        0.2105
     99 H           8.2942   31.2795    4.8000 H       1  UNL1        0.2106
    100 C           2.7341   32.1311    3.0817 C.3     1  UNL1        0.1693
    101 O           2.2297   33.3572    3.5898 O.3     1  UNL1       -0.3794
    102 H           1.4258   33.5699    3.0823 H       1  UNL1        0.2105
@<TRIPOS>BOND
     1    27    28    1
     2    28    29    1
     3    28    32    1
     4    29    30    1
     5    29    56    1
     6    30    31    1
     7    30    39    1
     8    32    31    1
     9    32    33    1
    10    32    38    1
    11    33    34    1
    12    34    35    1
    13    35    36    1
    14    35    37    1
    15    37    38    1
    16    39    41    1
    17    39    40    1
    18    40    58    1
    19    41    42    1
    20    41    56    1
    21    42    43    1
    22    42    53    1
    23    43    44    1
    24    44    45    1
    25    45    46    1
    26    45    51    1
    27    46    47    1
    28    47    48    1
    29    47    26    1
    30    13    14    1
    31    13    19    1
    32    13    26    1
    33    14    15    1
    34    15    23    1
    35    15    16    1
    36    23    24    1
    37    24    25    1
    38    16    12    1
    39    16    17    1
    40     1     2    1
    41     1     7    1
    42     1    12    1
    43     2     3    1
    44     3     9    1
    45     3     4    1
    46     9    10    1
    47    10    11    1
    48     4     5    1
    49     4     6    1
    50     5     8    1
    51     6    60    1
    52     6     7    1
    53    61    62    1
    54    61    68    1
    55    61    60    1
    56    62    63    1
    57    63    64    1
    58    64    66    1
    59    64    65    1
    60    65    70    1
    61    66    67    1
    62    66    68    1
    63    67    71    1
    64    68    69    1
    65    69    72    1
    66     7    73    1
    67    74    75    1
    68    74    80    1
    69    74    73    1
    70    75    76    1
    71    76    84    1
    72    76    77    1
    73    84    85    1
    74    85    86    1
    75    77    78    1
    76    77    79    1
    77    78    82    1
    78    79    87    1
    79    79    80    1
    80    88    89    1
    81    88    95    1
    82    88    87    1
    83    89    90    1
    84    90   100    1
    85    90    91    1
    86   100   101    1
    87   101   102    1
    88    91    93    1
    89    91    92    1
    90    92    97    1
    91    93    94    1
    92    93    95    1
    93    94    98    1
    94    95    96    1
    95    96    99    1
    96    80    81    1
    97    81    83    1
    98    17    18    1
    99    17    19    1
   100    18    21    1
   101    19    20    1
   102    20    22    1
   103    48    50    1
   104    48    49    1
   105    49    59    1
   106    50    51    1
   107    51    53    1
   108    51    52    1
   109    53    54    1
   110    54    55    1
   111    55    56    1
   112    56    57    1
#	Name:			CHEMBL404
#	Creating user name:	trannguyen
#	Creation time:		Tue Feb  8 18:26:14 2022


#	Modifying user name:	trannguyen
#	Modification time:	Tue Feb  8 18:26:14 2022

@<TRIPOS>MOLECULE
CHEMBL404
 21 23 0 0 0
SMALL
GASTEIGER

@<TRIPOS>ATOM
      1 C           3.8149   31.7638    7.7541 C.3     1  UNL1        0.0280
      2 C           4.8820   32.1465    8.8028 C.3     1  UNL1        0.1617
      3 C           4.4848   33.2653    9.7915 C.3     1  UNL1        0.1979
      4 N           5.6561   34.0966   10.0494 N.am    1  UNL1       -0.2518
      5 C           6.6480   33.6963   10.9016 C.2     1  UNL1        0.2307
      6 O           6.6041   32.9353   11.8361 O.2     1  UNL1       -0.2747
      7 C           7.7231   34.3054    9.9861 C.3     1  UNL1        0.1296
      8 C           6.6005   34.3419    8.9349 C.3     1  UNL1        0.2154
      9 S           6.3311   32.8722    7.9177 S.O2    1  UNL1        0.0070
     10 O           7.4532   31.9637    8.0739 O.2     1  UNL1       -0.1714
     11 O           5.9261   33.2757    6.5863 O.2     1  UNL1       -0.1714
     12 C           3.3777   34.1577    9.2400 C.2     1  UNL1        0.3339
     13 O           3.5831   35.1340    8.5323 O.2     1  UNL1       -0.2484
     14 O           2.1315   33.7332    9.5514 O.3     1  UNL1       -0.4790
     15 H           2.0746   32.9214   10.1039 H       1  UNL1        0.2951
     16 C           5.3681   30.8693    9.5321 C.3     1  UNL1        0.1532
     17 N           4.3475   29.9394    9.9745 N.ar    1  UNL1       -0.2284
     18 C           4.3846   28.5801    9.8840 C.ar    1  UNL1        0.1193
     19 C           3.2118   28.1793   10.4756 C.ar    1  UNL1        0.1441
     20 N           2.5155   29.2774   10.8968 N.ar    1  UNL1       -0.1271
     21 N           3.2205   30.3546   10.5838 N.ar    1  UNL1       -0.0637
@<TRIPOS>BOND
     1     2     3    1
     2     2     9    1
     3     2    16    1
     4     2     1    1
     5    16    17    1
     6    17    18   ar
     7    17    21   ar
     8    18    19   ar
     9    19    20   ar
    10    20    21   ar
    11     3     4    1
    12     3    12    1
    13    12    13    2
    14    12    14    1
    15    14    15    1
    16     4     5   am
    17     4     8    1
    18     5     6    2
    19     5     7    1
    20     7     8    1
    21     8     9    1
    22     9    10    2
    23     9    11    2
#	Name:			CHEMBL40583
#	Creating user name:	trannguyen
#	Creation time:		Tue Feb  8 18:26:14 2022


#	Modifying user name:	trannguyen
#	Modification time:	Tue Feb  8 18:26:14 2022

@<TRIPOS>MOLECULE
CHEMBL40583
 21 25 0 0 0
SMALL
GASTEIGER

@<TRIPOS>ATOM
      1 C          -0.2957   28.7006   10.2213 C.3     1  UNL1        0.0307
      2 C           1.1623   29.0084   10.1325 C.ar    1  UNL1       -0.0258
      3 C           2.1257   28.2799   10.8647 C.ar    1  UNL1       -0.0046
      4 C           3.5003   28.5637   10.7842 C.ar    1  UNL1       -0.0004
      5 C           3.9552   29.5988    9.9557 C.ar    1  UNL1       -0.0006
      6 C           5.2906   29.9907    9.7781 C.ar    1  UNL1       -0.0000
      7 C           5.6597   31.0600    8.9096 C.ar    1  UNL1       -0.0003
      8 C           4.6293   31.7493    8.1997 C.ar    1  UNL1       -0.0040
      9 C           4.9151   32.8020    7.3333 C.ar    1  UNL1       -0.0003
     10 C           6.2373   33.1990    7.1500 C.ar    1  UNL1       -0.0000
     11 C           7.2881   32.5584    7.8219 C.ar    1  UNL1       -0.0000
     12 C           8.6115   32.9883    7.6120 C.ar    1  UNL1       -0.0000
     13 C           9.6814   32.3761    8.2622 C.ar    1  UNL1        0.0000
     14 C           9.4431   31.3247    9.1321 C.ar    1  UNL1       -0.0000
     15 C           8.1343   30.8877    9.3497 C.ar    1  UNL1       -0.0000
     16 C           7.0173   31.4829    8.7089 C.ar    1  UNL1       -0.0000
     17 C           3.3072   31.3377    8.3964 C.ar    1  UNL1       -0.0221
     18 C           3.0117   30.2955    9.2519 C.ar    1  UNL1       -0.0082
     19 C           1.6571   30.0312    9.3209 C.ar    1  UNL1       -0.0261
     20 C           0.9168   30.9742    8.4371 C.3     1  UNL1        0.0307
     21 C           2.0380   31.8594    7.8013 C.3     1  UNL1        0.0310
@<TRIPOS>BOND
     1     1     2    1
     2     2     3   ar
     3     2    19   ar
     4     3     4   ar
     5     4     5   ar
     6     5     6   ar
     7     5    18   ar
     8     6     7   ar
     9     7     8   ar
    10     7    16   ar
    11     8     9   ar
    12     8    17   ar
    13     9    10   ar
    14    10    11   ar
    15    11    12   ar
    16    11    16   ar
    17    12    13   ar
    18    13    14   ar
    19    14    15   ar
    20    15    16   ar
    21    17    18   ar
    22    17    21    1
    23    18    19   ar
    24    19    20    1
    25    20    21    1
#	Name:			CHEMBL406
#	Creating user name:	trannguyen
#	Creation time:		Tue Feb  8 18:26:14 2022


#	Modifying user name:	trannguyen
#	Modification time:	Tue Feb  8 18:26:14 2022

@<TRIPOS>MOLECULE
CHEMBL406
 27 29 0 0 0
SMALL
GASTEIGER

@<TRIPOS>ATOM
      1 N           5.2996   32.3752    9.0204 N.am    1  UNL1       -0.2293
      2 C           4.1937   32.2326    8.1972 C.2     1  UNL1        0.2615
      3 O           4.0415   32.7566    7.0991 O.2     1  UNL1       -0.2686
      4 H           5.4289   31.8626    9.8841 H       1  UNL1        0.1733
      5 C           6.4103   34.1618   10.9228 C.3     1  UNL1        0.0237
      6 C           6.8159   34.2968    9.4505 C.3     1  UNL1        0.0967
      7 C           8.3569   34.4210    9.3085 C.3     1  UNL1        0.0492
      8 C           8.7278   33.0837    8.7623 C.ar    1  UNL1       -0.0056
      9 C           9.9938   32.5398    8.5991 C.ar    1  UNL1       -0.0029
     10 C          10.0994   31.2693    8.0313 C.ar    1  UNL1       -0.0002
     11 C           8.9501   30.5762    7.6251 C.ar    1  UNL1        0.0013
     12 C           7.6816   31.1461    7.7839 C.ar    1  UNL1        0.0158
     13 C           7.5759   32.4017    8.3671 C.ar    1  UNL1        0.0612
     14 N           6.3891   33.1467    8.6019 N.pl3   1  UNL1       -0.2401
     15 C           3.1144   31.3534    8.7366 C.ar    1  UNL1        0.0562
     16 C           1.7802   31.6475    8.4354 C.ar    1  UNL1        0.0055
     17 C           0.7533   30.8232    8.9091 C.ar    1  UNL1        0.0129
     18 C           1.0446   29.6966    9.6887 C.ar    1  UNL1        0.0762
     19 CL         -0.2952   28.7370   10.1984 Cl      1  UNL1       -0.0809
     20 C           2.3752   29.4108   10.0000 C.ar    1  UNL1        0.1323
     21 C           3.4049   30.2501    9.5459 C.ar    1  UNL1        0.0253
     22 S           2.8411   27.9912   10.9382 S.O2    1  UNL1        0.0580
     23 N           2.2368   26.7257   10.0188 N.3     1  UNL1       -0.2034
     24 O           4.2757   27.8413   10.8665 O.2     1  UNL1       -0.1532
     25 O           2.1378   27.9874   12.1994 O.2     1  UNL1       -0.1532
     26 H           2.9978   26.1386    9.6770 H       1  UNL1        0.1442
     27 H           1.5315   26.2185   10.5555 H       1  UNL1        0.1442
@<TRIPOS>BOND
     1     5     6    1
     2     6     7    1
     3     6    14    1
     4     7     8    1
     5     8     9   ar
     6     8    13   ar
     7     9    10   ar
     8    10    11   ar
     9    11    12   ar
    10    12    13   ar
    11    13    14    1
    12    14     1    1
    13     1     2   am
    14     1     4    1
    15     2     3    2
    16     2    15    1
    17    15    16   ar
    18    15    21   ar
    19    16    17   ar
    20    17    18   ar
    21    18    19    1
    22    18    20   ar
    23    20    22    1
    24    20    21   ar
    25    22    23    1
    26    22    24    2
    27    22    25    2
    28    23    26    1
    29    23    27    1
#	Name:			CHEMBL407030
#	Creating user name:	trannguyen
#	Creation time:		Tue Feb  8 18:26:14 2022


#	Modifying user name:	trannguyen
#	Modification time:	Tue Feb  8 18:26:14 2022

@<TRIPOS>MOLECULE
CHEMBL407030
 111 119 0 0 0
SMALL
GASTEIGER

@<TRIPOS>ATOM
      1 C           9.9009   36.9827   -3.8266 C.3     1  UNL1        0.1518
      2 O           9.6959   37.6008   -5.1153 O.3     1  UNL1       -0.3284
      3 C           8.8333   36.8447   -5.9325 C.3     1  UNL1        0.2656
      4 O           8.9169   37.1173   -7.3281 O.3     1  UNL1       -0.3260
      5 C           9.2439   38.4009   -7.8932 C.3     1  UNL1        0.1766
      6 C          10.4410   39.1744   -7.2895 C.3     1  UNL1        0.1765
      7 O          10.1331   40.1662   -6.2856 O.3     1  UNL1       -0.3260
      8 C           8.8282   40.7278   -6.2811 C.3     1  UNL1        0.2658
      9 O           8.9304   42.1150   -5.8997 O.3     1  UNL1       -0.3260
     10 C           9.0143   42.3696   -4.4853 C.3     1  UNL1        0.1766
     11 C           8.4161   43.7766   -4.2273 C.3     1  UNL1        0.1765
     12 O           8.9969   44.5087   -3.1290 O.3     1  UNL1       -0.3260
     13 C           9.4231   43.7333   -2.0064 C.3     1  UNL1        0.2658
     14 O           8.2539   43.2592   -1.3206 O.3     1  UNL1       -0.3260
     15 C           8.5145   42.5111   -0.1241 C.3     1  UNL1        0.1766
     16 C           7.5831   41.2918   -0.0673 C.3     1  UNL1        0.1765
     17 O           7.9208   40.3624    0.9769 O.3     1  UNL1       -0.3260
     18 C           8.6903   40.9190    2.0553 C.3     1  UNL1        0.2658
     19 O          10.0686   40.9693    1.7009 O.3     1  UNL1       -0.3260
     20 C          10.8952   39.9075    2.1962 C.3     1  UNL1        0.1766
     21 C          12.3631   40.3265    1.9920 C.3     1  UNL1        0.1765
     22 O          13.3354   39.3819    2.4705 O.3     1  UNL1       -0.3260
     23 C          12.8684   38.0455    2.6471 C.3     1  UNL1        0.2658
     24 O          12.2994   37.9553    3.9520 O.3     1  UNL1       -0.3260
     25 C          12.7059   36.8205    4.7501 C.3     1  UNL1        0.1766
     26 C          12.2685   35.4985    4.0982 C.3     1  UNL1        0.1765
     27 O          10.8422   35.4291    3.8918 O.3     1  UNL1       -0.3260
     28 C          10.0495   36.3058    4.6832 C.3     1  UNL1        0.2658
     29 O           8.6663   35.9869    4.5589 O.3     1  UNL1       -0.3260
     30 C           8.1190   34.7441    5.0152 C.3     1  UNL1        0.1766
     31 C           9.0296   33.5041    4.9805 C.3     1  UNL1        0.1765
     32 O           9.3618   33.0176    3.6670 O.3     1  UNL1       -0.3260
     33 C           8.3851   33.1852    2.6301 C.3     1  UNL1        0.2658
     34 O           8.7907   34.2684    1.7635 O.3     1  UNL1       -0.3260
     35 C           8.3417   34.1054    0.3924 C.3     1  UNL1        0.1764
     36 C           9.5385   34.2302   -0.6006 C.3     1  UNL1        0.1739
     37 O           9.6026   35.4658   -1.3375 O.3     1  UNL1       -0.3509
     38 C           8.3860   35.8698   -1.9642 C.3     1  UNL1        0.1493
     39 C           8.6081   37.0588   -2.9676 C.3     1  UNL1        0.0889
     40 C           7.3534   37.2550   -3.8609 C.3     1  UNL1        0.1471
     41 O           7.0293   38.6644   -3.9027 O.3     1  UNL1       -0.3816
     42 C           7.4199   36.7555   -5.3217 C.3     1  UNL1        0.1940
     43 O           6.4141   37.4556   -6.0654 O.3     1  UNL1       -0.3776
     44 C           7.4731   36.2615   -0.7890 C.3     1  UNL1        0.1668
     45 O           6.2188   36.8023   -1.1890 O.3     1  UNL1       -0.3795
     46 C           7.1910   35.0855    0.1428 C.3     1  UNL1        0.1692
     47 O           6.0722   34.3530   -0.4094 O.3     1  UNL1       -0.3794
     48 C           6.9562   33.3327    3.1917 C.3     1  UNL1        0.1964
     49 O           5.9334   33.4143    2.1810 O.3     1  UNL1       -0.3775
     50 C           6.8621   34.5419    4.1329 C.3     1  UNL1        0.1719
     51 O           5.6912   34.3625    4.9477 O.3     1  UNL1       -0.3794
     52 C          10.5574   36.4505    6.1278 C.3     1  UNL1        0.1964
     53 O           9.7275   37.3176    6.9147 O.3     1  UNL1       -0.3775
     54 C          12.0048   37.0028    6.1168 C.3     1  UNL1        0.1719
     55 O          12.7642   36.3560    7.1450 O.3     1  UNL1       -0.3794
     56 C          11.8505   37.6166    1.5638 C.3     1  UNL1        0.1964
     57 O          12.5228   37.5064    0.3049 O.3     1  UNL1       -0.3775
     58 C          10.6560   38.5868    1.4421 C.3     1  UNL1        0.1719
     59 O           9.4588   37.9656    1.9525 O.3     1  UNL1       -0.3794
     60 C           8.1981   42.3544    2.3984 C.3     1  UNL1        0.1964
     61 O           6.8498   42.2950    2.9091 O.3     1  UNL1       -0.3775
     62 C           8.2383   43.3031    1.1662 C.3     1  UNL1        0.1719
     63 O           9.2526   44.2967    1.3485 O.3     1  UNL1       -0.3794
     64 C          10.4310   42.6366   -2.4461 C.3     1  UNL1        0.1964
     65 O          11.7635   42.9713   -2.0238 O.3     1  UNL1       -0.3775
     66 C          10.4535   42.3947   -3.9590 C.3     1  UNL1        0.1719
     67 O          11.1628   41.1605   -4.1317 O.3     1  UNL1       -0.3794
     68 C           8.1543   40.7099   -7.6551 C.3     1  UNL1        0.1964
     69 O           6.8524   41.3220   -7.6112 O.3     1  UNL1       -0.3775
     70 C           8.0071   39.2766   -8.1555 C.3     1  UNL1        0.1719
     71 O           7.7613   39.3475   -9.5780 O.3     1  UNL1       -0.3794
     72 H           6.6683   38.8679   -3.0047 H       1  UNL1        0.2104
     73 H           6.2948   38.3035   -5.5866 H       1  UNL1        0.2106
     74 H           5.6016   36.0349   -1.2271 H       1  UNL1        0.2105
     75 H           5.7389   33.8116    0.3431 H       1  UNL1        0.2105
     76 H           5.1021   33.5396    2.6883 H       1  UNL1        0.2106
     77 H           5.5118   35.2177    5.3846 H       1  UNL1        0.2105
     78 H           8.8386   37.3111    6.5142 H       1  UNL1        0.2106
     79 H          12.3837   36.6554    7.9946 H       1  UNL1        0.2105
     80 H          11.8919   37.0665   -0.3087 H       1  UNL1        0.2106
     81 H           9.4270   37.0523    1.6261 H       1  UNL1        0.2105
     82 H           6.3860   41.5721    2.4501 H       1  UNL1        0.2106
     83 H           9.0679   45.0160    0.7167 H       1  UNL1        0.2105
     84 H          12.3447   42.2958   -2.4268 H       1  UNL1        0.2106
     85 H          10.9327   40.8054   -5.0154 H       1  UNL1        0.2105
     86 H           6.9955   42.2243   -7.2661 H       1  UNL1        0.2106
     87 H           6.9282   39.8499   -9.6715 H       1  UNL1        0.2105
     88 O          11.9194   37.0593   -2.3762 O.3     1  UNL1       -0.3795
     89 C          11.0980   37.7720   -3.2750 C.3     1  UNL1        0.1668
     90 H          12.7386   37.5979   -2.3137 H       1  UNL1        0.2105
     91 C          11.2606   39.8829   -8.3933 C.3     1  UNL1        0.1693
     92 O          10.9235   39.3528   -9.6765 O.3     1  UNL1       -0.3794
     93 H          10.9711   38.3837   -9.5955 H       1  UNL1        0.2105
     94 C           6.8886   43.7371   -4.0820 C.3     1  UNL1        0.1693
     95 O           6.3028   43.2152   -5.2742 O.3     1  UNL1       -0.3794
     96 H           6.7672   43.6599   -6.0105 H       1  UNL1        0.2105
     97 C           7.5565   40.5458   -1.3920 C.3     1  UNL1        0.1693
     98 O           6.3987   39.7281   -1.4920 O.3     1  UNL1       -0.3794
     99 H           6.3499   39.2005   -0.6719 H       1  UNL1        0.2105
    100 C          12.6726   41.6598    2.6886 C.3     1  UNL1        0.1693
    101 O          12.0928   42.7373    1.9489 O.3     1  UNL1       -0.3794
    102 H          12.2640   42.5256    1.0105 H       1  UNL1        0.2105
    103 C          12.7301   34.2348    4.8373 C.3     1  UNL1        0.1693
    104 O          14.0987   34.3915    5.2294 O.3     1  UNL1       -0.3794
    105 H          14.5581   34.8392    4.4888 H       1  UNL1        0.2105
    106 C           8.4922   32.3476    5.8478 C.3     1  UNL1        0.1693
    107 O           7.6570   32.8597    6.8839 O.3     1  UNL1       -0.3794
    108 H           8.0025   33.7388    7.1313 H       1  UNL1        0.2105
    109 C           9.5436   33.0263   -1.5710 C.3     1  UNL1        0.1692
    110 O           8.3635   32.2495   -1.4019 O.3     1  UNL1       -0.3794
    111 H           8.3808   31.5335   -2.0835 H       1  UNL1        0.2105
@<TRIPOS>BOND
     1    88    89    1
     2    88    90    1
     3    89     1    1
     4     1     2    1
     5     1    39    1
     6     2     3    1
     7     3     4    1
     8     3    42    1
     9     4     5    1
    10     5     6    1
    11     5    70    1
    12     6     7    1
    13     6    91    1
    14    91    92    1
    15    92    93    1
    16     7     8    1
    17     8     9    1
    18     8    68    1
    19     9    10    1
    20    10    11    1
    21    10    66    1
    22    11    12    1
    23    11    94    1
    24    94    95    1
    25    95    96    1
    26    12    13    1
    27    13    14    1
    28    13    64    1
    29    14    15    1
    30    15    16    1
    31    15    62    1
    32    16    17    1
    33    16    97    1
    34    97    98    1
    35    98    99    1
    36    17    18    1
    37    18    19    1
    38    18    60    1
    39    19    20    1
    40    20    21    1
    41    20    58    1
    42    21    22    1
    43    21   100    1
    44   100   101    1
    45   101   102    1
    46    22    23    1
    47    23    24    1
    48    23    56    1
    49    24    25    1
    50    25    26    1
    51    25    54    1
    52    26    27    1
    53    26   103    1
    54   103   104    1
    55   104   105    1
    56    27    28    1
    57    28    29    1
    58    28    52    1
    59    29    30    1
    60    30    31    1
    61    30    50    1
    62    31    32    1
    63    31   106    1
    64   106   107    1
    65   107   108    1
    66    32    33    1
    67    33    34    1
    68    33    48    1
    69    34    35    1
    70    35    36    1
    71    35    46    1
    72    36    37    1
    73    36   109    1
    74   109   110    1
    75   110   111    1
    76    37    38    1
    77    38    39    1
    78    38    44    1
    79    39    40    1
    80    40    42    1
    81    40    41    1
    82    41    72    1
    83    42    43    1
    84    43    73    1
    85    44    46    1
    86    44    45    1
    87    45    74    1
    88    46    47    1
    89    47    75    1
    90    48    50    1
    91    48    49    1
    92    49    76    1
    93    50    51    1
    94    51    77    1
    95    52    54    1
    96    52    53    1
    97    53    78    1
    98    54    55    1
    99    55    79    1
   100    56    58    1
   101    56    57    1
   102    57    80    1
   103    58    59    1
   104    59    81    1
   105    60    62    1
   106    60    61    1
   107    61    82    1
   108    62    63    1
   109    63    83    1
   110    64    66    1
   111    64    65    1
   112    65    84    1
   113    66    67    1
   114    67    85    1
   115    68    70    1
   116    68    69    1
   117    69    86    1
   118    70    71    1
   119    71    87    1
#	Name:			CHEMBL407
#	Creating user name:	trannguyen
#	Creation time:		Tue Feb  8 18:26:14 2022


#	Modifying user name:	trannguyen
#	Modification time:	Tue Feb  8 18:26:14 2022

@<TRIPOS>MOLECULE
CHEMBL407
 22 24 0 0 0
SMALL
GASTEIGER

@<TRIPOS>ATOM
      1 C           6.0154   32.1318    9.1004 C.ar    1  UNL1        0.1719
      2 N           6.5283   30.9451    9.5898 N.ar    1  UNL1       -0.2173
      3 C           5.4902   30.1711    9.8019 C.ar    1  UNL1        0.1828
      4 N           4.3052   30.7744    9.4517 N.ar    1  UNL1       -0.2895
      5 C           4.6312   32.0476    9.0379 C.ar    1  UNL1        0.0868
      6 C           3.5973   33.0384    8.6881 C.3     1  UNL1        0.1397
      7 N           2.9404   32.5593    7.4962 N.am    1  UNL1       -0.2686
      8 C           3.1481   33.3212    6.2748 C.3     1  UNL1        0.1156
      9 C           2.0781   31.4761    7.4962 C.2     1  UNL1        0.2508
     10 O           1.4028   31.1678    6.5153 O.2     1  UNL1       -0.2698
     11 C           1.9440   30.6246    8.7189 C.ar    1  UNL1        0.0719
     12 C           0.6712   30.0586    8.9123 C.ar    1  UNL1        0.0356
     13 C           0.4600   29.1287    9.9210 C.ar    1  UNL1        0.1404
     14 F          -0.7604   28.6067   10.0944 F       1  UNL1       -0.2042
     15 C           1.4987   28.7208   10.7437 C.ar    1  UNL1        0.0311
     16 C           2.7727   29.2597   10.5638 C.ar    1  UNL1        0.0200
     17 C           3.0027   30.2257    9.5634 C.ar    1  UNL1        0.0697
     18 C           6.8437   33.2838    8.7409 C.2     1  UNL1        0.3604
     19 O           6.8668   33.7733    7.6155 O.2     1  UNL1       -0.2431
     20 O           7.5889   33.7382    9.7911 O.3     1  UNL1       -0.4444
     21 C           7.5687   35.8597   10.9598 C.3     1  UNL1        0.0513
     22 C           6.8837   34.5199   10.7622 C.3     1  UNL1        0.2089
@<TRIPOS>BOND
     1    21    22    1
     2    22    20    1
     3    20    18    1
     4    18    19    2
     5    18     1    1
     6     1     2   ar
     7     1     5   ar
     8     2     3   ar
     9     3     4   ar
    10     4     5   ar
    11     4    17    1
    12     5     6    1
    13     6     7    1
    14     7     8    1
    15     7     9   am
    16     9    10    2
    17     9    11    1
    18    11    12   ar
    19    11    17   ar
    20    12    13   ar
    21    13    14    1
    22    13    15   ar
    23    15    16   ar
    24    16    17   ar
#	Name:			CHEMBL408
#	Creating user name:	trannguyen
#	Creation time:		Tue Feb  8 18:26:14 2022


#	Modifying user name:	trannguyen
#	Modification time:	Tue Feb  8 18:26:14 2022

@<TRIPOS>MOLECULE
CHEMBL408
 33 36 0 0 0
SMALL
GASTEIGER

@<TRIPOS>ATOM
      1 C           4.5397   34.6242    9.6668 C.3     1  UNL1        0.2448
      2 C           4.3479   27.3815   10.1331 C.3     1  UNL1        0.0340
      3 C           3.6441   28.7077    9.9928 C.ar    1  UNL1        0.0105
      4 C           4.3181   29.9396    9.8981 C.ar    1  UNL1        0.0107
      5 C           5.8205   30.0778    9.9650 C.3     1  UNL1        0.0340
      6 C           3.5623   31.1207    9.7108 C.ar    1  UNL1        0.1299
      7 C           2.1571   31.1070    9.6487 C.ar    1  UNL1        0.0105
      8 C           1.4768   29.8730    9.7215 C.ar    1  UNL1        0.0104
      9 C          -0.0260   29.7942    9.6263 C.3     1  UNL1        0.0340
     10 C           2.2364   28.6995    9.8978 C.ar    1  UNL1        0.1252
     11 O           1.6303   27.4684    9.9796 O.3     1  UNL1       -0.5062
     12 C           1.4054   32.3981    9.4584 C.3     1  UNL1        0.0329
     13 C           2.2637   33.6067    9.7700 C.3     1  UNL1        0.0486
     14 C           3.6583   33.4668    9.1565 C.3     1  UNL1        0.1734
     15 C           3.6493   33.4850    7.6210 C.3     1  UNL1        0.0475
     16 O           4.3059   32.2703    9.6113 O.3     1  UNL1       -0.4796
     17 H           0.6698   27.5734   10.0322 H       1  UNL1        0.2922
     18 O           5.2438   34.2283   10.8462 O.3     1  UNL1       -0.4717
     19 C           6.5608   33.9204   10.6578 C.ar    1  UNL1        0.1387
     20 C           7.3440   33.2012   11.5573 C.ar    1  UNL1        0.0366
     21 C           8.6866   32.9555   11.2765 C.ar    1  UNL1       -0.0011
     22 C           9.2691   33.4339   10.0973 C.ar    1  UNL1       -0.0206
     23 C           8.4819   34.1772    9.2073 C.ar    1  UNL1       -0.0011
     24 C           7.1355   34.4183    9.4893 C.ar    1  UNL1        0.0366
     25 C          10.7208   33.1340    9.7929 C.3     1  UNL1        0.0468
     26 C          10.9878   32.2766    8.5473 C.3     1  UNL1        0.1369
     27 S          12.7577   31.9093    8.2727 S.3     1  UNL1       -0.0482
     28 C          12.5655   30.2439    8.7665 C.2     1  UNL1        0.2792
     29 O          13.4909   29.4946    9.0070 O.2     1  UNL1       -0.2625
     30 N          11.2495   29.9238    8.8185 N.am    1  UNL1       -0.2460
     31 C          10.3314   30.9187    8.6687 C.2     1  UNL1        0.2392
     32 O           9.1214   30.7299    8.6797 O.2     1  UNL1       -0.2737
     33 H          10.9651   28.9809    9.0258 H       1  UNL1        0.1583
@<TRIPOS>BOND
     1     2     3    1
     2     3     4   ar
     3     3    10   ar
     4     4     5    1
     5     4     6   ar
     6     6     7   ar
     7     6    16    1
     8     7     8   ar
     9     7    12    1
    10     8     9    1
    11     8    10   ar
    12    10    11    1
    13    11    17    1
    14    12    13    1
    15    13    14    1
    16    14    15    1
    17    14     1    1
    18    14    16    1
    19     1    18    1
    20    18    19    1
    21    19    20   ar
    22    19    24   ar
    23    20    21   ar
    24    21    22   ar
    25    22    25    1
    26    22    23   ar
    27    25    26    1
    28    26    27    1
    29    26    31    1
    30    27    28    1
    31    28    29    2
    32    28    30   am
    33    30    31   am
    34    30    33    1
    35    31    32    2
    36    23    24   ar
#	Name:			CHEMBL409841
#	Creating user name:	trannguyen
#	Creation time:		Tue Feb  8 18:26:14 2022


#	Modifying user name:	trannguyen
#	Modification time:	Tue Feb  8 18:26:14 2022

@<TRIPOS>MOLECULE
CHEMBL409841
 42 42 0 0 0
SMALL
GASTEIGER

@<TRIPOS>ATOM
      1 N           5.9394   32.6123    9.7067 N.am    3  VAL3       -0.2970
      2 C           6.9650   33.4667    9.3766 C.2     2  ALA2        0.2406
      3 O           7.1526   34.4291   10.1342 O.2     2  ALA2       -0.2733
      4 H           5.4540   32.9491   10.5348 H       3  VAL3        0.1499
      5 CA          7.8636   33.2843    8.1206 C.3     2  ALA2        0.1486
      6 CB          9.1660   34.0887    8.1496 C.3     2  ALA2        0.0312
      7 N           7.1298   33.6223    6.8809 N.am    2  ALA2       -0.2973
      8 C           7.4360   33.0368    5.6736 C.2     1  TYR1        0.2371
      9 O           8.2834   32.1445    5.5897 O.2     1  TYR1       -0.2737
     10 H           6.3500   34.2821    6.8987 H       2  ALA2        0.1499
     11 CA          6.6735   33.5381    4.4195 C.3     1  TYR1        0.1327
     12 N           7.5986   34.0496    3.3754 N.3     1  TYR1       -0.3148
     13 H1          7.0302   34.4745    2.6357 H       1  TYR1        0.1192
     14 H2          8.0434   33.2581    2.9097 H       1  TYR1        0.1192
     15 CB          5.7575   32.3835    3.9377 C.3     1  TYR1        0.0512
     16 CG          4.2652   32.5364    4.1433 C.ar    1  TYR1       -0.0201
     17 CD1         3.4543   31.3890    4.1988 C.ar    1  TYR1       -0.0011
     18 CE1         2.0844   31.4941    4.4558 C.ar    1  TYR1        0.0363
     19 CZ          1.5227   32.7498    4.6560 C.ar    1  TYR1        0.1337
     20 OH          0.1943   32.9050    4.9174 O.3     1  TYR1       -0.5055
     21 CE2         2.3053   33.8944    4.6068 C.ar    1  TYR1        0.0363
     22 CD2         3.6745   33.7867    4.3690 C.ar    1  TYR1       -0.0011
     23 HH         -0.2253   32.0296    4.9109 H       1  TYR1        0.2922
     24 CA          5.3681   31.3526    9.1406 C.3     3  VAL3        0.1485
     25 C           3.8624   31.6218    8.7439 C.2     3  VAL3        0.2407
     26 O           3.5599   31.9061    7.5793 O.2     3  VAL3       -0.2733
     27 N           2.8681   31.5259    9.6982 N.am    4  GLU4       -0.2954
     28 H           3.0541   31.1276   10.6098 H       4  GLU4        0.1499
     29 CA          1.5347   32.0768    9.3620 C.3     4  GLU4        0.1718
     30 C           1.0846   33.2754   10.2303 C.2     4  GLU4        0.3318
     31 O          -0.0660   33.6714   10.3473 O.2     4  GLU4       -0.2485
     32 OXT         2.0811   33.8748   10.9142 O.3     4  GLU4       -0.4791
     33 HXT         1.6215   34.5364   11.4726 H       4  GLU4        0.2951
     34 CB          0.4278   31.0127    9.2420 C.3     4  GLU4        0.0427
     35 CG          0.8463   29.5457    9.2178 C.3     4  GLU4        0.1116
     36 CD          0.9727   28.8819   10.5810 C.2     4  GLU4        0.3139
     37 OE1         1.8646   29.0141   11.3590 O.2     4  GLU4       -0.2503
     38 OE2        -0.0471   28.0488   10.8279 O.3     4  GLU4       -0.4802
     39 HE2         0.2120   27.6784   11.7249 H       4  GLU4        0.2951
     40 CG1         6.4268   30.0253   11.1718 C.3     3  VAL3        0.0022
     41 CB          5.2554   30.2060   10.2219 C.3     3  VAL3        0.0269
     42 CG2         4.9482   28.8236    9.6029 C.3     3  VAL3        0.0022
@<TRIPOS>BOND
     1    40    41    1
     2    41    42    1
     3    24     1    1
     4    24    25    1
     5    24    41    1
     6     1     2   am
     7     1     4    1
     8     2     3    2
     9     5     6    1
    10     5     7    1
    11     5     2    1
    12     7     8   am
    13     7    10    1
    14     8     9    2
    15     8    11    1
    16    11    12    1
    17    11    15    1
    18    12    13    1
    19    12    14    1
    20    15    16    1
    21    16    17   ar
    22    16    22   ar
    23    17    18   ar
    24    18    19   ar
    25    19    20    1
    26    19    21   ar
    27    20    23    1
    28    21    22   ar
    29    25    26    2
    30    25    27   am
    31    27    29    1
    32    27    28    1
    33    29    34    1
    34    29    30    1
    35    34    35    1
    36    35    36    1
    37    36    37    2
    38    36    38    1
    39    38    39    1
    40    30    31    2
    41    30    32    1
    42    32    33    1
#	Name:			CHEMBL40
#	Creating user name:	trannguyen
#	Creation time:		Tue Feb  8 18:26:14 2022


#	Modifying user name:	trannguyen
#	Modification time:	Tue Feb  8 18:26:14 2022

@<TRIPOS>MOLECULE
CHEMBL40
 19 20 0 0 0
SMALL
GASTEIGER

@<TRIPOS>ATOM
      1 C           2.3392   31.8529    8.2707 C.3     1  UNL1        0.1566
      2 C           2.9549   33.2604    8.2766 C.2     1  UNL1        0.2405
      3 O           3.7374   33.6768    7.4228 O.2     1  UNL1       -0.2738
      4 N           2.6403   34.0545    9.3458 N.am    1  UNL1       -0.2387
      5 C           1.4909   33.9560   10.0617 C.2     1  UNL1        0.3122
      6 O           1.0731   34.8946   10.7316 O.2     1  UNL1       -0.2520
      7 N           0.7670   32.8171    9.9117 N.am    1  UNL1       -0.2387
      8 C           0.9355   31.9212    8.8910 C.2     1  UNL1        0.2405
      9 O          -0.0012   31.1927    8.5645 O.2     1  UNL1       -0.2738
     10 H           3.0732   34.9680    9.3565 H       1  UNL1        0.1591
     11 H          -0.1518   32.8362   10.3333 H       1  UNL1        0.1591
     12 C           3.2396   30.8714    9.0749 C.ar    1  UNL1       -0.0064
     13 C           4.6318   31.0687    9.1647 C.ar    1  UNL1       -0.0034
     14 C           5.4453   30.1769    9.8690 C.ar    1  UNL1       -0.0003
     15 C           4.8904   29.0596   10.4832 C.ar    1  UNL1       -0.0000
     16 C           3.5233   28.8255   10.3820 C.ar    1  UNL1       -0.0003
     17 C           2.7071   29.7154    9.6782 C.ar    1  UNL1       -0.0034
     18 C           1.6051   32.2410    5.8059 C.3     1  UNL1        0.0013
     19 C           2.2603   31.3027    6.8188 C.3     1  UNL1        0.0215
@<TRIPOS>BOND
     1    18    19    1
     2    19     1    1
     3     1    12    1
     4     1     2    1
     5     1     8    1
     6    12    13   ar
     7    12    17   ar
     8    13    14   ar
     9    14    15   ar
    10    15    16   ar
    11    16    17   ar
    12     2     3    2
    13     2     4   am
    14     4     5   am
    15     4    10    1
    16     5     6    2
    17     5     7   am
    18     7     8   am
    19     7    11    1
    20     8     9    2
#	Name:			CHEMBL410639
#	Creating user name:	trannguyen
#	Creation time:		Tue Feb  8 18:26:14 2022


#	Modifying user name:	trannguyen
#	Modification time:	Tue Feb  8 18:26:14 2022

@<TRIPOS>MOLECULE
CHEMBL410639
 45 45 0 0 0
SMALL
GASTEIGER

@<TRIPOS>ATOM
      1 C           4.3722   33.8160    4.8251 C.2     3  PRO3        0.2409
      2 O           3.4822   34.6691    4.6890 O.2     3  PRO3       -0.2733
      3 N           5.5258   34.1533    4.2139 N.am    4  GLU4       -0.2970
      4 H           5.4535   35.0681    3.7780 H       4  GLU4        0.1499
      5 C           4.0664   32.2560    8.0582 C.2     2  LEU2        0.2438
      6 O           5.2502   32.6083    8.1209 O.2     2  LEU2       -0.2731
      7 N           3.3829   32.3035    6.8451 N.am    3  PRO3       -0.2717
      8 CD          2.0666   31.7426    6.6538 C.3     3  PRO3        0.0939
      9 CG          2.0908   30.9833    5.3526 C.3     3  PRO3        0.0237
     10 CB          3.1081   31.7204    4.5202 C.3     3  PRO3        0.0310
     11 CA          4.0620   32.4486    5.5203 C.3     3  PRO3        0.1518
     12 CA          3.4020   31.7354    9.3860 C.3     2  LEU2        0.1488
     13 N           2.3070   32.7085    9.6404 N.am    2  LEU2       -0.2972
     14 C           2.4716   33.8658   10.3654 C.2     1  GLY1        0.2387
     15 O           3.5232   34.1380   10.9387 O.2     1  GLY1       -0.2736
     16 H           1.4071   32.4960    9.2157 H       2  LEU2        0.1499
     17 CA          1.2177   34.7606   10.4450 C.3     1  GLY1        0.1515
     18 N           0.0046   33.9839   10.1541 N.3     1  GLY1       -0.3135
     19 H1          0.1881   33.4026    9.3321 H       1  GLY1        0.1193
     20 H2         -0.7554   34.6131    9.9027 H       1  GLY1        0.1193
     21 CB          2.7691   30.3212    9.4078 C.3     2  LEU2        0.0290
     22 CD1         2.6923   27.8919   10.2003 C.3     2  LEU2        0.0001
     23 CG          3.3639   29.2538   10.3465 C.3     2  LEU2        0.0021
     24 CD2         4.8515   28.9969   10.0485 C.3     2  LEU2        0.0001
     25 CA          6.7863   33.4562    4.0614 C.3     4  GLU4        0.1491
     26 C           7.8024   34.0598    5.0583 C.2     4  GLU4        0.2407
     27 O           8.7905   34.7009    4.7052 O.2     4  GLU4       -0.2733
     28 N           7.6463   33.6325    6.3743 N.am    5  GLY5       -0.2953
     29 H           6.7347   33.2873    6.6709 H       5  GLY5        0.1499
     30 CA          8.6709   33.9710    7.3509 C.3     5  GLY5        0.1757
     31 C           8.1519   34.6123    8.6342 C.2     5  GLY5        0.2429
     32 O           7.0759   35.2090    8.6941 O.2     5  GLY5       -0.2732
     33 N           8.8443   34.2945    9.7891 N.am    6  GLY6       -0.2936
     34 H           9.7429   33.8254    9.7183 H       6  GLY6        0.1500
     35 CA          8.5006   34.8835   11.0914 C.3     6  GLY6        0.2004
     36 C           8.8061   36.3678   11.1686 C.2     6  GLY6        0.3341
     37 O           9.9315   36.7845   11.4270 O.2     6  GLY6       -0.2484
     38 OXT         7.7622   37.1891   11.0140 O.3     6  GLY6       -0.4790
     39 HXT         6.9923   36.6436   10.7110 H       6  GLY6        0.2951
     40 CB          7.2659   33.3691    2.5964 C.3     4  GLU4        0.0406
     41 CG          8.2313   32.2308    2.2897 C.3     4  GLU4        0.1116
     42 CD          7.6290   31.2513    1.2712 C.2     4  GLU4        0.3139
     43 OE1         7.6414   31.3425    0.0388 O.2     4  GLU4       -0.2503
     44 OE2         7.1022   30.1664    1.9229 O.3     4  GLU4       -0.4802
     45 HE2         6.9346   29.5336    1.1939 H       4  GLU4        0.2951
@<TRIPOS>BOND
     1    22    23    1
     2    23    24    1
     3    23    21    1
     4    12    13    1
     5    12     5    1
     6    12    21    1
     7    13    14   am
     8    13    16    1
     9    14    15    2
    10    14    17    1
    11    17    18    1
    12    18    19    1
    13    18    20    1
    14     5     6    2
    15     5     7   am
    16     7     8    1
    17     7    11    1
    18     8     9    1
    19     9    10    1
    20    10    11    1
    21    11     1    1
    22     1     2    2
    23     1     3   am
    24     3    25    1
    25     3     4    1
    26    25    40    1
    27    25    26    1
    28    40    41    1
    29    41    42    1
    30    42    43    2
    31    42    44    1
    32    44    45    1
    33    26    27    2
    34    26    28   am
    35    28    30    1
    36    28    29    1
    37    30    31    1
    38    31    32    2
    39    31    33   am
    40    33    35    1
    41    33    34    1
    42    35    36    1
    43    36    37    2
    44    36    38    1
    45    38    39    1
#	Name:			CHEMBL411443
#	Creating user name:	trannguyen
#	Creation time:		Tue Feb  8 18:26:14 2022


#	Modifying user name:	trannguyen
#	Modification time:	Tue Feb  8 18:26:14 2022

@<TRIPOS>MOLECULE
CHEMBL411443
 42 42 0 0 0
SMALL
GASTEIGER

@<TRIPOS>ATOM
      1 CA          6.6101   33.2890    8.9566 C.3     2  VAL2        0.1485
      2 N           5.2577   32.7346    9.2107 N.am    2  VAL2       -0.2973
      3 C           4.0636   33.3864    8.9486 C.2     1  TYR1        0.2371
      4 O           4.0018   34.4967    8.4441 O.2     1  TYR1       -0.2737
      5 H           5.2181   31.8372    9.6772 H       2  VAL2        0.1499
      6 CA          2.8246   32.6534    9.5189 C.3     1  TYR1        0.1327
      7 N           1.7170   33.6357    9.5180 N.3     1  TYR1       -0.3148
      8 H1          1.9040   34.4149   10.1385 H       1  TYR1        0.1192
      9 H2          0.8522   33.1922    9.8331 H       1  TYR1        0.1192
     10 CB          2.4743   31.4122    8.6647 C.3     1  TYR1        0.0512
     11 CG          2.4019   30.1035    9.4337 C.ar    1  TYR1       -0.0201
     12 CD1         1.1541   29.5960    9.8326 C.ar    1  TYR1       -0.0011
     13 CE1         1.0711   28.4250   10.5937 C.ar    1  TYR1        0.0363
     14 CZ          2.2369   27.7558   10.9501 C.ar    1  TYR1        0.1337
     15 OH          2.2130   26.6274   11.7130 O.3     1  TYR1       -0.5055
     16 CE2         3.4754   28.2201   10.5374 C.ar    1  TYR1        0.0363
     17 CD2         3.5549   29.3756    9.7652 C.ar    1  TYR1       -0.0011
     18 HH          1.2899   26.4257   11.9350 H       1  TYR1        0.2922
     19 C           7.4203   32.4585    7.9008 C.2     2  VAL2        0.2406
     20 O           8.1358   31.4986    8.1864 O.2     2  VAL2       -0.2733
     21 N           7.4176   32.9608    6.6239 N.am    3  ALA3       -0.2970
     22 H           6.6801   33.6185    6.4048 H       3  ALA3        0.1499
     23 CA          8.0944   32.3036    5.5033 C.3     3  ALA3        0.1486
     24 CB          7.3163   32.5857    4.2218 C.3     3  ALA3        0.0312
     25 C           9.5685   32.7749    5.3936 C.2     3  ALA3        0.2407
     26 O           9.9604   33.5175    4.4980 O.2     3  ALA3       -0.2733
     27 N          10.4439   32.2229    6.3125 N.am    4  GLU4       -0.2954
     28 H          10.1120   31.4203    6.8546 H       4  GLU4        0.1499
     29 CA         11.8700   32.5909    6.3615 C.3     4  GLU4        0.1718
     30 C          12.7296   31.5486    5.5886 C.2     4  GLU4        0.3318
     31 O          12.7793   31.4618    4.3683 O.2     4  GLU4       -0.2485
     32 OXT        13.3699   30.6447    6.3739 O.3     4  GLU4       -0.4791
     33 HXT        13.1710   30.7494    7.3242 H       4  GLU4        0.2951
     34 CB         12.4040   32.7878    7.8067 C.3     4  GLU4        0.0427
     35 CG         11.5785   32.2853    9.0120 C.3     4  GLU4        0.1116
     36 CD         11.6377   30.8134    9.3176 C.2     4  GLU4        0.3139
     37 OE1        12.1968   30.3203   10.3029 O.2     4  GLU4       -0.2503
     38 OE2        10.9522   30.0497    8.4458 O.3     4  GLU4       -0.4802
     39 HE2        10.5458   30.5193    7.6995 H       4  GLU4        0.2951
     40 CG1         7.3025   32.5784   11.3011 C.3     2  VAL2        0.0022
     41 CB          7.4109   33.6742   10.2315 C.3     2  VAL2        0.0269
     42 CG2         6.9504   34.9960   10.8595 C.3     2  VAL2        0.0022
@<TRIPOS>BOND
     1    40    41    1
     2    41    42    1
     3     1     2    1
     4     1    19    1
     5     1    41    1
     6     2     3   am
     7     2     5    1
     8     3     4    2
     9     3     6    1
    10     6     7    1
    11     6    10    1
    12     7     8    1
    13     7     9    1
    14    10    11    1
    15    11    12   ar
    16    11    17   ar
    17    12    13   ar
    18    13    14   ar
    19    14    15    1
    20    14    16   ar
    21    15    18    1
    22    16    17   ar
    23    19    20    2
    24    19    21   am
    25    21    23    1
    26    21    22    1
    27    23    24    1
    28    23    25    1
    29    25    26    2
    30    25    27   am
    31    27    29    1
    32    27    28    1
    33    29    34    1
    34    29    30    1
    35    34    35    1
    36    35    36    1
    37    36    37    2
    38    36    38    1
    39    38    39    1
    40    30    31    2
    41    30    32    1
    42    32    33    1
#	Name:			CHEMBL411
#	Creating user name:	trannguyen
#	Creation time:		Tue Feb  8 18:26:14 2022


#	Modifying user name:	trannguyen
#	Modification time:	Tue Feb  8 18:26:14 2022

@<TRIPOS>MOLECULE
CHEMBL411
 22 23 0 0 0
SMALL
GASTEIGER

@<TRIPOS>ATOM
      1 C           4.9334   32.4256    6.5092 C.2     1  UNL1       -0.0261
      2 C           4.4884   32.1700    5.2506 C.2     1  UNL1       -0.0261
      3 C           5.3986   32.2861    4.0934 C.ar    1  UNL1       -0.0041
      4 C           6.1544   31.1778    3.6850 C.ar    1  UNL1        0.0028
      5 C           7.0475   31.2823    2.6162 C.ar    1  UNL1        0.0366
      6 C           7.1758   32.4971    1.9514 C.ar    1  UNL1        0.1337
      7 O           8.0434   32.6479    0.9105 O.3     1  UNL1       -0.5055
      8 C           6.4230   33.6025    2.3338 C.ar    1  UNL1        0.0366
      9 C           5.5354   33.4989    3.4069 C.ar    1  UNL1        0.0028
     10 H           8.5283   31.8150    0.7891 H       1  UNL1        0.2922
     11 C           4.0296   32.2978    7.6712 C.ar    1  UNL1       -0.0041
     12 C           3.3969   33.4317    8.1998 C.ar    1  UNL1        0.0028
     13 C           2.5557   33.3203    9.3097 C.ar    1  UNL1        0.0366
     14 C           2.3520   32.0721    9.8893 C.ar    1  UNL1        0.1337
     15 O           1.5487   31.9183   10.9802 O.3     1  UNL1       -0.5055
     16 C           2.9660   30.9368    9.3728 C.ar    1  UNL1        0.0366
     17 C           3.8034   31.0479    8.2616 C.ar    1  UNL1        0.0028
     18 H           1.2071   32.7900   11.2381 H       1  UNL1        0.2922
     19 C           7.2804   31.8027    7.2539 C.3     1  UNL1        0.0050
     20 C           6.3213   32.9239    6.8731 C.3     1  UNL1        0.0260
     21 C           3.0954   31.6794    4.9004 C.3     1  UNL1        0.0260
     22 C           2.1222   32.8139    4.6042 C.3     1  UNL1        0.0050
@<TRIPOS>BOND
     1    19    20    1
     2    20     1    1
     3     1     2    2
     4     1    11    1
     5     2    21    1
     6     2     3    1
     7    21    22    1
     8     3     4   ar
     9     3     9   ar
    10     4     5   ar
    11     5     6   ar
    12     6     7    1
    13     6     8   ar
    14     7    10    1
    15     8     9   ar
    16    11    12   ar
    17    11    17   ar
    18    12    13   ar
    19    13    14   ar
    20    14    15    1
    21    14    16   ar
    22    15    18    1
    23    16    17   ar
#	Name:			CHEMBL412060
#	Creating user name:	trannguyen
#	Creation time:		Tue Feb  8 18:26:14 2022


#	Modifying user name:	trannguyen
#	Modification time:	Tue Feb  8 18:26:14 2022

@<TRIPOS>MOLECULE
CHEMBL412060
 40 42 0 0 0
SMALL
GASTEIGER

@<TRIPOS>ATOM
      1 CA          5.0469   32.0694    8.6579 C.3     3  TYR3        0.1532
      2 C           4.9241   32.4611    7.1698 C.2     3  TYR3        0.2442
      3 O           3.8505   32.8676    6.7056 O.2     3  TYR3       -0.2731
      4 N           5.9949   32.3590    6.3163 N.am    4  PRO4       -0.2701
      5 CD          7.3041   31.7841    6.5557 C.3     4  PRO4        0.0940
      6 CG          8.2218   32.6560    5.7218 C.3     4  PRO4        0.0238
      7 CB          7.3831   33.0003    4.4904 C.3     4  PRO4        0.0331
      8 CA          5.9191   32.7876    4.9108 C.3     4  PRO4        0.1745
      9 C           5.2310   31.7270    4.0393 C.2     4  PRO4        0.3320
     10 O           5.8487   30.8251    3.4411 O.2     4  PRO4       -0.2485
     11 OXT         3.9007   31.8563    3.8856 O.3     4  PRO4       -0.4790
     12 HXT         3.6121   32.7404    4.1780 H       4  PRO4        0.2951
     13 C           6.6119   32.9636   10.3885 C.2     2  PRO2        0.2409
     14 O           6.8748   31.8412   10.8159 O.2     2  PRO2       -0.2733
     15 N           5.7298   33.1724    9.3508 N.am    3  TYR3       -0.2967
     16 H           5.3493   34.1049    9.2311 H       3  TYR3        0.1499
     17 C           9.6712   33.6959   10.4443 C.2     1  LEU1        0.2400
     18 O           9.6921   32.9386   11.4227 O.2     1  LEU1       -0.2734
     19 N           8.5508   34.4434   10.1641 N.am    2  PRO2       -0.2719
     20 CD          8.2781   35.2954    9.0248 C.3     2  PRO2        0.0939
     21 CG          7.2695   36.2750    9.5888 C.3     2  PRO2        0.0237
     22 CB          6.4476   35.4519   10.5819 C.3     2  PRO2        0.0310
     23 CA          7.3171   34.2298   10.9123 C.3     2  PRO2        0.1518
     24 CA         10.9171   33.7917    9.5273 C.3     1  LEU1        0.1285
     25 N          11.9041   34.7214   10.1198 N.3     1  LEU1       -0.3150
     26 H1         11.4389   35.6173   10.2862 H       1  LEU1        0.1192
     27 H2         12.6364   34.9083    9.4370 H       1  LEU1        0.1192
     28 CB         11.5868   32.4505    9.1849 C.3     1  LEU1        0.0248
     29 CD1        11.5872   31.4854    6.8420 C.3     1  LEU1        0.0001
     30 CG         10.8330   31.5816    8.1639 C.3     1  LEU1        0.0018
     31 CD2        10.6189   30.1765    8.7373 C.3     1  LEU1        0.0001
     32 CB          3.6175   31.8365    9.2252 C.3     3  TYR3        0.0553
     33 CG          3.2355   30.4133    9.5864 C.ar    3  TYR3       -0.0198
     34 CD1         4.2488   29.4710    9.8423 C.ar    3  TYR3       -0.0011
     35 CE1         3.9285   28.1472   10.1643 C.ar    3  TYR3        0.0363
     36 CZ          2.5978   27.7559   10.2234 C.ar    3  TYR3        0.1337
     37 OH          2.3142   26.4616   10.5412 O.3     3  TYR3       -0.5055
     38 CE2         1.5824   28.6653    9.9706 C.ar    3  TYR3        0.0363
     39 CD2         1.9034   29.9876    9.6695 C.ar    3  TYR3       -0.0011
     40 HH          1.3474   26.3628   10.5642 H       3  TYR3        0.2922
@<TRIPOS>BOND
     1    29    30    1
     2    30    31    1
     3    30    28    1
     4    24    25    1
     5    24    17    1
     6    24    28    1
     7    25    26    1
     8    25    27    1
     9    17    18    2
    10    17    19   am
    11    19    20    1
    12    19    23    1
    13    20    21    1
    14    21    22    1
    15    22    23    1
    16    23    13    1
    17    13    14    2
    18    13    15   am
    19    15     1    1
    20    15    16    1
    21     1    32    1
    22     1     2    1
    23    32    33    1
    24    33    34   ar
    25    33    39   ar
    26    34    35   ar
    27    35    36   ar
    28    36    37    1
    29    36    38   ar
    30    37    40    1
    31    38    39   ar
    32     2     3    2
    33     2     4   am
    34     4     5    1
    35     4     8    1
    36     5     6    1
    37     6     7    1
    38     7     8    1
    39     8     9    1
    40     9    10    2
    41     9    11    1
    42    11    12    1
#	Name:			CHEMBL412295
#	Creating user name:	trannguyen
#	Creation time:		Tue Feb  8 18:26:14 2022


#	Modifying user name:	trannguyen
#	Modification time:	Tue Feb  8 18:26:14 2022

@<TRIPOS>MOLECULE
CHEMBL412295
 44 44 0 0 0
SMALL
GASTEIGER

@<TRIPOS>ATOM
      1 C           5.3075   32.8319    7.6450 C.2     3  PRO3        0.2409
      2 O           4.8535   33.7362    8.3422 O.2     3  PRO3       -0.2733
      3 N           4.5819   32.3139    6.5903 N.am    4  ASP4       -0.2966
      4 H           4.8256   31.4014    6.2076 H       4  ASP4        0.1499
      5 C           8.8211   33.3724    8.1620 C.2     2  LEU2        0.2438
      6 O           8.9477   33.3949    6.9295 O.2     2  LEU2       -0.2731
      7 N           7.6157   32.9522    8.7130 N.am    3  PRO3       -0.2717
      8 CD          7.2843   32.7102   10.1018 C.3     3  PRO3        0.0939
      9 CG          7.0076   31.2213   10.1459 C.3     3  PRO3        0.0237
     10 CB          6.5270   30.8655    8.7337 C.3     3  PRO3        0.0310
     11 CA          6.6853   32.1509    7.8997 C.3     3  PRO3        0.1518
     12 CA         10.0731   33.6721    9.0667 C.3     2  LEU2        0.1488
     13 N           9.7119   34.8983    9.8671 N.am    2  LEU2       -0.2972
     14 C          10.5895   35.8144   10.4313 C.2     1  GLY1        0.2387
     15 O          11.8053   35.8600   10.2492 O.2     1  GLY1       -0.2736
     16 H           8.7912   34.8625   10.2886 H       2  LEU2        0.1499
     17 CA          9.9329   36.9005   11.2847 C.3     1  GLY1        0.1515
     18 N          10.2367   36.6683   12.7085 N.3     1  GLY1       -0.3135
     19 H1         11.2485   36.5946   12.8196 H       1  GLY1        0.1193
     20 H2          9.8936   35.7302   12.9432 H       1  GLY1        0.1193
     21 CB         10.5243   32.5443   10.0026 C.3     2  LEU2        0.0290
     22 CD1        10.4559   30.2987    8.8615 C.3     2  LEU2        0.0001
     23 CG         11.3402   31.3581    9.5003 C.3     2  LEU2        0.0021
     24 CD2        12.3265   31.8521    8.4249 C.3     2  LEU2        0.0001
     25 CA          3.2885   32.8826    6.1618 C.3     4  ASP4        0.1598
     26 C           2.1905   31.9969    6.7954 C.2     4  ASP4        0.2413
     27 O           1.5295   31.2084    6.1137 O.2     4  ASP4       -0.2733
     28 N           2.0231   32.1421    8.1456 N.am    5  GLY5       -0.2953
     29 H           2.5242   32.8917    8.6222 H       5  GLY5        0.1499
     30 CA          1.0494   31.3900    8.9253 C.3     5  GLY5        0.1757
     31 C           1.5227   29.9861    9.3413 C.2     5  GLY5        0.2429
     32 O           0.8480   28.9827    9.0941 O.2     5  GLY5       -0.2732
     33 N           2.7735   29.9273    9.9178 N.am    6  GLY6       -0.2936
     34 H           3.0359   30.7517   10.4619 H       6  GLY6        0.1500
     35 CA          3.3477   28.6488   10.3317 C.3     6  GLY6        0.2004
     36 C           2.4245   27.7933   11.1940 C.2     6  GLY6        0.3341
     37 O           2.0456   28.1295   12.3155 O.2     6  GLY6       -0.2484
     38 OXT         2.0441   26.6208   10.6414 O.3     6  GLY6       -0.4790
     39 HXT         2.4391   26.4861    9.7540 H       6  GLY6        0.2951
     40 CB          3.1989   32.9450    4.6317 C.3     4  ASP4        0.1382
     41 CG          4.0804   31.9181    3.9467 C.2     4  ASP4        0.3160
     42 OD1         5.2604   32.0272    3.7415 O.2     4  ASP4       -0.2502
     43 OD2         3.3930   30.8254    3.5362 O.3     4  ASP4       -0.4801
     44 HD2         2.4544   30.7889    3.7785 H       4  ASP4        0.2951
@<TRIPOS>BOND
     1    22    23    1
     2    23    24    1
     3    23    21    1
     4    12    13    1
     5    12     5    1
     6    12    21    1
     7    13    14   am
     8    13    16    1
     9    14    15    2
    10    14    17    1
    11    17    18    1
    12    18    19    1
    13    18    20    1
    14     5     6    2
    15     5     7   am
    16     7     8    1
    17     7    11    1
    18     8     9    1
    19     9    10    1
    20    10    11    1
    21    11     1    1
    22     1     2    2
    23     1     3   am
    24     3    25    1
    25     3     4    1
    26    25    40    1
    27    25    26    1
    28    40    41    1
    29    41    42    2
    30    41    43    1
    31    43    44    1
    32    26    27    2
    33    26    28   am
    34    28    30    1
    35    28    29    1
    36    30    31    1
    37    31    32    2
    38    31    33   am
    39    33    35    1
    40    33    34    1
    41    35    36    1
    42    36    37    2
    43    36    38    1
    44    38    39    1
#	Name:			CHEMBL412873
#	Creating user name:	trannguyen
#	Creation time:		Tue Feb  8 18:26:14 2022


#	Modifying user name:	trannguyen
#	Modification time:	Tue Feb  8 18:26:14 2022

@<TRIPOS>MOLECULE
CHEMBL412873
 17 20 0 0 0
SMALL
GASTEIGER

@<TRIPOS>ATOM
      1 C           1.5868   32.4241    5.0837 C.3     1  UNL1        0.0028
      2 C           2.5697   33.5697    4.8599 C.3     1  UNL1        0.0174
      3 C           3.9403   33.2894    5.4690 C.3     1  UNL1        0.0720
      4 N           3.8140   32.8644    6.8629 N.3     1  UNL1       -0.2739
      5 C           5.1086   32.8213    7.5258 C.3     1  UNL1        0.0733
      6 C           4.9743   32.3942    8.9930 C.3     1  UNL1        0.0307
      7 C           4.4952   30.9348    8.9748 C.3     1  UNL1        0.0055
      8 C           3.0600   30.9372    8.4279 C.3     1  UNL1        0.0307
      9 C           2.1943   31.6011    9.5113 C.3     1  UNL1        0.0733
     10 N           2.5735   32.9837    9.6788 N.3     1  UNL1       -0.2739
     11 C           1.7415   33.7658   10.5720 C.3     1  UNL1        0.0720
     12 C           1.7253   35.1943   10.0278 C.3     1  UNL1        0.0174
     13 C           2.9919   35.5428    9.2317 C.3     1  UNL1        0.0028
     14 C           4.2309   34.7939    9.7500 C.3     1  UNL1        0.0160
     15 C           4.0069   33.2607    9.8718 C.3     1  UNL1        0.0588
     16 C           3.0298   31.6186    7.0070 C.3     1  UNL1        0.0588
     17 C           1.5981   31.9360    6.5354 C.3     1  UNL1        0.0160
@<TRIPOS>BOND
     1     1     2    1
     2     1    17    1
     3     2     3    1
     4     3     4    1
     5     4     5    1
     6     4    16    1
     7     5     6    1
     8     6     7    1
     9     6    15    1
    10     7     8    1
    11     8     9    1
    12     8    16    1
    13     9    10    1
    14    10    11    1
    15    10    15    1
    16    11    12    1
    17    12    13    1
    18    13    14    1
    19    14    15    1
    20    16    17    1
#	Name:			CHEMBL413965
#	Creating user name:	trannguyen
#	Creation time:		Tue Feb  8 18:26:14 2022


#	Modifying user name:	trannguyen
#	Modification time:	Tue Feb  8 18:26:14 2022

@<TRIPOS>MOLECULE
CHEMBL413965
 17 18 0 0 0
SMALL
GASTEIGER

@<TRIPOS>ATOM
      1 C           2.2057   29.7698    9.8818 C.ar    1  UNL1       -0.0111
      2 C           1.1317   29.8877    8.9965 C.ar    1  UNL1       -0.0037
      3 C           1.2737   30.6131    7.8080 C.ar    1  UNL1       -0.0003
      4 C           2.4823   31.2483    7.4710 C.ar    1  UNL1       -0.0000
      5 C           3.5426   31.1386    8.3866 C.ar    1  UNL1       -0.0003
      6 C           3.4099   30.4128    9.5734 C.ar    1  UNL1       -0.0037
      7 C           2.6371   31.9901    6.1986 C.ar    1  UNL1       -0.0000
      8 C           3.1296   33.3085    6.1762 C.ar    1  UNL1       -0.0000
      9 C           3.2804   34.0119    4.9769 C.ar    1  UNL1        0.0000
     10 C           2.9509   33.4075    3.7684 C.ar    1  UNL1        0.0000
     11 C           2.4666   32.1035    3.7599 C.ar    1  UNL1        0.0000
     12 C           2.3070   31.4060    4.9621 C.ar    1  UNL1       -0.0000
     13 C           2.1024   28.9018   11.1143 C.3     1  UNL1        0.1357
     14 O           3.0881   27.0682    9.8961 O.2     1  UNL1       -0.2499
     15 C           2.4690   27.4477   10.8760 C.2     1  UNL1        0.3183
     16 O           2.1095   26.5918   11.8631 O.3     1  UNL1       -0.4799
     17 H           1.6040   27.0069   12.5892 H       1  UNL1        0.2951
@<TRIPOS>BOND
     1    14    15    2
     2    15    16    1
     3    15    13    1
     4    16    17    1
     5    13     1    1
     6     1     2   ar
     7     1     6   ar
     8     2     3   ar
     9     3     4   ar
    10     4     7    1
    11     4     5   ar
    12     7     8   ar
    13     7    12   ar
    14     8     9   ar
    15     9    10   ar
    16    10    11   ar
    17    11    12   ar
    18     5     6   ar
#	Name:			CHEMBL413
#	Creating user name:	trannguyen
#	Creation time:		Tue Feb  8 18:26:14 2022


#	Modifying user name:	trannguyen
#	Modification time:	Tue Feb  8 18:26:14 2022

@<TRIPOS>MOLECULE
CHEMBL413
 68 71 0 0 0
SMALL
GASTEIGER

@<TRIPOS>ATOM
      1 C          14.3128   34.4819    3.9959 C.3     1  UNL1        0.1361
      2 C          13.2215   33.7241    4.7920 C.3     1  UNL1        0.0634
      3 C          13.2281   33.9241    6.3213 C.3     1  UNL1        0.1208
      4 C          14.5859   33.7040    6.9928 C.3     1  UNL1        0.0299
      5 C          14.4143   33.1970    8.4136 C.3     1  UNL1        0.0078
      6 C          13.7286   31.8371    8.3270 C.3     1  UNL1        0.0592
      7 C          13.6053   31.1906    9.7078 C.3     1  UNL1        0.0055
      8 C          12.4280   31.9167    7.4843 C.3     1  UNL1        0.2454
      9 O          12.5714   30.9609    6.4217 O.3     1  UNL1       -0.3580
     10 O          12.1544   33.1827    6.9025 O.3     1  UNL1       -0.3310
     11 C          11.1621   31.5597    8.2782 C.2     1  UNL1        0.2764
     12 O          10.6822   30.4248    8.2975 O.2     1  UNL1       -0.2814
     13 C          10.4835   32.6935    9.0415 C.2     1  UNL1        0.2892
     14 O          11.1509   33.3116    9.8622 O.2     1  UNL1       -0.2666
     15 N           9.1241   32.9258    8.7954 N.am    1  UNL1       -0.2654
     16 C           8.3810   33.8065    9.6914 C.3     1  UNL1        0.0943
     17 C           7.3527   32.9932   10.4744 C.3     1  UNL1        0.0216
     18 C           6.4309   32.2118    9.5375 C.3     1  UNL1        0.0040
     19 C           7.2196   31.3853    8.5150 C.3     1  UNL1        0.0314
     20 C           8.3162   32.1915    7.7925 C.3     1  UNL1        0.1749
     21 C           7.7252   33.0799    6.6952 C.2     1  UNL1        0.3351
     22 O           6.8003   33.8786    6.8550 O.2     1  UNL1       -0.2483
     23 O           8.3245   32.8246    5.5051 O.3     1  UNL1       -0.4507
     24 C           7.7381   33.3960    4.3001 C.3     1  UNL1        0.1761
     25 C           8.8929   33.7633    3.3487 C.3     1  UNL1        0.1083
     26 C           9.4555   35.1446    3.6675 C.2     1  UNL1        0.1579
     27 O           9.3636   35.6174    4.8040 O.2     1  UNL1       -0.2956
     28 C          10.2487   35.8731    2.5595 C.3     1  UNL1        0.0791
     29 C          10.7675   37.2176    3.0768 C.3     1  UNL1        0.0125
     30 C           9.4261   36.1998    1.3341 C.2     1  UNL1       -0.0252
     31 C           9.7651   36.0324    0.0354 C.2     1  UNL1       -0.0186
     32 C          10.9882   35.3111   -0.4508 C.3     1  UNL1        0.0286
     33 C           8.9096   36.6026   -1.0882 C.3     1  UNL1        0.1627
     34 O           7.6034   36.0310   -0.9184 O.3     1  UNL1       -0.3774
     35 C           8.8545   38.1656   -1.1088 C.3     1  UNL1        0.2025
     36 C           9.6780   38.6816   -2.3148 C.2     1  UNL1        0.1798
     37 O           9.1994   38.7591   -3.4480 O.2     1  UNL1       -0.2934
     38 C          11.0960   39.1846   -2.0180 C.3     1  UNL1        0.0605
     39 C          11.0237   40.6928   -1.7634 C.3     1  UNL1        0.0079
     40 C          12.0630   38.8704   -3.1805 C.3     1  UNL1        0.0117
     41 C          13.5501   38.8792   -2.7497 C.3     1  UNL1        0.0225
     42 C          14.4560   39.2116   -3.9391 C.3     1  UNL1        0.0047
     43 C          13.9510   37.5357   -2.1822 C.2     1  UNL1       -0.0265
     44 C          14.1198   37.2813   -0.8754 C.2     1  UNL1       -0.0046
     45 C          14.4618   35.9644   -0.3814 C.2     1  UNL1       -0.0004
     46 C          14.3336   35.6148    0.9093 C.2     1  UNL1       -0.0006
     47 C          14.6368   34.2841    1.3925 C.2     1  UNL1       -0.0062
     48 C          14.6320   33.7865    2.6515 C.2     1  UNL1       -0.0172
     49 C          15.0870   32.3428    2.8001 C.3     1  UNL1        0.0288
     50 H          11.7903   30.3774    6.4656 H       1  UNL1        0.2132
     51 H           6.9915   36.7957   -0.9436 H       1  UNL1        0.2109
     52 C          14.6552   36.8358    4.4466 C.3     1  UNL1        0.1744
     53 O          13.9306   35.8367    3.7541 O.3     1  UNL1       -0.3494
     54 C           6.7442   32.3296    3.7315 C.3     1  UNL1        0.0406
     55 C           7.3236   31.6142    2.5041 C.3     1  UNL1        0.0037
     56 C           5.3371   32.9115    3.4292 C.3     1  UNL1        0.0037
     57 C           4.1309   32.2667    4.1728 C.3     1  UNL1        0.0027
     58 C           2.8412   33.0521    3.8507 C.3     1  UNL1        0.0027
     59 C           1.6348   32.5726    4.6550 C.3     1  UNL1        0.0318
     60 C           1.9191   32.6191    6.1489 C.3     1  UNL1        0.1375
     61 O           0.7801   32.1321    6.8643 O.3     1  UNL1       -0.3820
     62 C           3.1471   31.7677    6.5055 C.3     1  UNL1        0.1420
     63 C           4.3723   32.1950    5.6871 C.3     1  UNL1        0.0321
     64 H           1.0821   32.0552    7.7914 H       1  UNL1        0.2104
     65 O           3.3575   31.9364    7.9214 O.3     1  UNL1       -0.3511
     66 C           3.2115   30.7384    8.6721 C.3     1  UNL1        0.1741
     67 O           7.4661   38.5379   -1.1011 O.3     1  UNL1       -0.3433
     68 C           7.2511   39.9374   -0.9797 C.3     1  UNL1        0.1747
@<TRIPOS>BOND
     1    52    53    1
     2     1     2    1
     3     1    48    1
     4     1    53    1
     5     2     3    1
     6     3     4    1
     7     3    10    1
     8     4     5    1
     9     5     6    1
    10     6     8    1
    11     6     7    1
    12     8    10    1
    13     8    11    1
    14     8     9    1
    15     9    50    1
    16    11    13    1
    17    11    12    2
    18    13    15   am
    19    13    14    2
    20    15    16    1
    21    15    20    1
    22    16    17    1
    23    17    18    1
    24    18    19    1
    25    19    20    1
    26    20    21    1
    27    21    23    1
    28    21    22    2
    29    23    24    1
    30    24    25    1
    31    24    54    1
    32    54    56    1
    33    54    55    1
    34    57    58    1
    35    57    63    1
    36    57    56    1
    37    58    59    1
    38    59    60    1
    39    60    62    1
    40    60    61    1
    41    61    64    1
    42    62    65    1
    43    62    63    1
    44    65    66    1
    45    25    26    1
    46    26    28    1
    47    26    27    2
    48    28    30    1
    49    28    29    1
    50    30    31    2
    51    31    33    1
    52    31    32    1
    53    33    35    1
    54    33    34    1
    55    34    51    1
    56    35    36    1
    57    35    67    1
    58    67    68    1
    59    36    38    1
    60    36    37    2
    61    38    40    1
    62    38    39    1
    63    40    41    1
    64    41    43    1
    65    41    42    1
    66    43    44    2
    67    44    45    1
    68    45    46    2
    69    46    47    1
    70    47    48    2
    71    48    49    1
#	Name:			CHEMBL415324
#	Creating user name:	trannguyen
#	Creation time:		Tue Feb  8 18:26:14 2022


#	Modifying user name:	trannguyen
#	Modification time:	Tue Feb  8 18:26:14 2022

@<TRIPOS>MOLECULE
CHEMBL415324
 26 27 0 0 0
SMALL
GASTEIGER

@<TRIPOS>ATOM
      1 C           5.1946   33.2480    5.2284 C.2     1  UNL1        0.2496
      2 O           4.4341   34.0787    4.7535 O.2     1  UNL1       -0.2698
      3 N           6.4243   32.8497    4.7214 N.am    1  UNL1       -0.2802
      4 H           6.8484   32.0082    5.1140 H       1  UNL1        0.1552
      5 C           7.0529   33.3639    3.5482 C.ar    1  UNL1        0.0568
      6 C           7.4931   34.6912    3.4996 C.ar    1  UNL1        0.0149
      7 C           8.0435   35.2328    2.3347 C.ar    1  UNL1        0.0013
      8 C           8.1791   34.4495    1.1980 C.ar    1  UNL1        0.0003
      9 C           7.8105   33.1072    1.2369 C.ar    1  UNL1        0.0077
     10 C           7.2492   32.5431    2.4057 C.ar    1  UNL1        0.0889
     11 C           6.8672   31.1048    2.4401 C.2     1  UNL1        0.3392
     12 O           6.0066   30.6869    3.1795 O.2     1  UNL1       -0.2450
     13 O           7.5170   30.3042    1.5569 O.3     1  UNL1       -0.4771
     14 H           8.1467   30.7405    0.9268 H       1  UNL1        0.2954
     15 C           3.5146   32.3314    6.7897 C.2     1  UNL1        0.0048
     16 C           4.8036   32.4515    6.4263 C.2     1  UNL1        0.0580
     17 C           2.4318   29.9215   10.1671 C.ar    1  UNL1        0.1724
     18 C           1.4647   30.3268    9.2327 C.ar    1  UNL1        0.0400
     19 C           1.8037   31.0648    8.0957 C.ar    1  UNL1        0.0033
     20 C           3.1270   31.4364    7.8879 C.ar    1  UNL1        0.0034
     21 C           4.1053   31.0004    8.7954 C.ar    1  UNL1        0.0400
     22 C           3.7802   30.2414    9.9403 C.ar    1  UNL1        0.1724
     23 C           1.8199   27.8962   11.3176 C.3     1  UNL1        0.2526
     24 O           1.8606   29.3120   11.2518 O.3     1  UNL1       -0.4684
     25 O           4.7212   29.8455   10.8585 O.3     1  UNL1       -0.4684
     26 C           6.0796   30.1843   10.5762 C.3     1  UNL1        0.2526
@<TRIPOS>BOND
     1    23    24    1
     2    24    17    1
     3    17    18   ar
     4    17    22   ar
     5    18    19   ar
     6    19    20   ar
     7    20    15    1
     8    20    21   ar
     9    15    16    2
    10    16     1    1
    11     1     2    2
    12     1     3   am
    13     3     5    1
    14     3     4    1
    15     5     6   ar
    16     5    10   ar
    17     6     7   ar
    18     7     8   ar
    19     8     9   ar
    20     9    10   ar
    21    10    11    1
    22    11    12    2
    23    11    13    1
    24    13    14    1
    25    21    22   ar
    26    22    25    1
    27    25    26    1
#	Name:			CHEMBL41543
#	Creating user name:	trannguyen
#	Creation time:		Tue Feb  8 18:26:14 2022


#	Modifying user name:	trannguyen
#	Modification time:	Tue Feb  8 18:26:14 2022

@<TRIPOS>MOLECULE
CHEMBL41543
 20 22 0 0 0
SMALL
GASTEIGER

@<TRIPOS>ATOM
      1 N           1.2662   31.3771   10.2060 N.am    1  UNL1       -0.3126
      2 C           1.3835   31.6338    8.8674 C.2     1  UNL1        0.3084
      3 O           0.3675   32.0183    8.2915 O.2     1  UNL1       -0.2521
      4 N           2.6720   31.5060    8.3236 N.am    1  UNL1       -0.2228
      5 C           3.7305   30.8688    9.0453 C.ar    1  UNL1        0.0556
      6 C           3.5368   29.5916    9.5963 C.ar    1  UNL1        0.0150
      7 C           4.5382   28.9809   10.3524 C.ar    1  UNL1        0.0013
      8 C           5.7426   29.6427   10.5713 C.ar    1  UNL1       -0.0002
      9 C           5.9474   30.9115   10.0307 C.ar    1  UNL1       -0.0030
     10 C           4.9445   31.5298    9.2683 C.ar    1  UNL1       -0.0078
     11 C           5.1610   32.8895    8.6763 C.3     1  UNL1        0.0323
     12 C           5.3140   32.7591    7.1704 C.3     1  UNL1        0.0323
     13 C           4.1258   32.2443    6.3835 C.ar    1  UNL1       -0.0078
     14 C           4.2702   32.3556    4.9777 C.ar    1  UNL1       -0.0030
     15 C           3.2504   31.9966    4.1026 C.ar    1  UNL1       -0.0002
     16 C           2.0603   31.5133    4.6145 C.ar    1  UNL1        0.0013
     17 C           1.9027   31.3823    5.9965 C.ar    1  UNL1        0.0150
     18 C           2.9185   31.7321    6.9152 C.ar    1  UNL1        0.0556
     19 H           0.3628   31.6282   10.5845 H       1  UNL1        0.1465
     20 H           2.0612   31.5873   10.7926 H       1  UNL1        0.1465
@<TRIPOS>BOND
     1     1     2   am
     2     1    19    1
     3     1    20    1
     4     2     3    2
     5     2     4   am
     6     4     5    1
     7     4    18    1
     8     5     6   ar
     9     5    10   ar
    10     6     7   ar
    11     7     8   ar
    12     8     9   ar
    13     9    10   ar
    14    10    11    1
    15    11    12    1
    16    12    13    1
    17    13    14   ar
    18    13    18   ar
    19    14    15   ar
    20    15    16   ar
    21    16    17   ar
    22    17    18   ar
#	Name:			CHEMBL415690
#	Creating user name:	trannguyen
#	Creation time:		Tue Feb  8 18:26:14 2022


#	Modifying user name:	trannguyen
#	Modification time:	Tue Feb  8 18:26:14 2022

@<TRIPOS>MOLECULE
CHEMBL415690
 98 105 0 0 0
SMALL
GASTEIGER

@<TRIPOS>ATOM
      1 C           9.8855   32.5224    5.6801 C.3     1  UNL1        0.1765
      2 O          10.1759   33.2112    4.4639 O.3     1  UNL1       -0.3260
      3 C           9.0499   33.7987    3.8010 C.3     1  UNL1        0.2658
      4 O           9.0935   33.3260    2.4426 O.3     1  UNL1       -0.3260
      5 C           8.3047   34.0517    1.4819 C.3     1  UNL1        0.1766
      6 C           8.4475   33.3761    0.0871 C.3     1  UNL1        0.1765
      7 O           9.7271   33.6012   -0.5455 O.3     1  UNL1       -0.3260
      8 C          10.1211   34.9757   -0.6584 C.3     1  UNL1        0.2658
      9 O           9.2022   35.7208   -1.4693 O.3     1  UNL1       -0.3260
     10 C           9.7415   36.5390   -2.5350 C.3     1  UNL1        0.1766
     11 C          10.9356   37.4326   -2.1428 C.3     1  UNL1        0.1765
     12 O          10.6298   38.4091   -1.1334 O.3     1  UNL1       -0.3260
     13 C           9.2761   38.8263   -1.0114 C.3     1  UNL1        0.2658
     14 O           9.3165   40.1356   -0.4233 O.3     1  UNL1       -0.3260
     15 C           8.7710   40.2081    0.9175 C.3     1  UNL1        0.1766
     16 C           8.7255   41.7035    1.3253 C.3     1  UNL1        0.1765
     17 O          10.0009   42.2356    1.7230 O.3     1  UNL1       -0.3260
     18 C          10.7879   41.4862    2.6431 C.3     1  UNL1        0.2658
     19 O          10.2062   41.4975    3.9541 O.3     1  UNL1       -0.3260
     20 C          11.1596   41.7716    5.0059 C.3     1  UNL1        0.1766
     21 C          11.0373   40.6532    6.0697 C.3     1  UNL1        0.1765
     22 O          10.2483   41.0538    7.2194 O.3     1  UNL1       -0.3260
     23 C           9.0556   41.7029    6.8085 C.3     1  UNL1        0.2658
     24 O           8.1423   41.8675    7.8921 O.3     1  UNL1       -0.3260
     25 C           7.7444   40.7110    8.6430 C.3     1  UNL1        0.1766
     26 C           8.5880   40.5466    9.9202 C.3     1  UNL1        0.1765
     27 O           8.3115   39.2546   10.4960 O.3     1  UNL1       -0.3260
     28 C           8.9797   38.2482    9.7474 C.3     1  UNL1        0.2658
     29 O           8.7334   36.9706   10.3209 O.3     1  UNL1       -0.3260
     30 C           9.8308   36.2137   10.8828 C.3     1  UNL1        0.1766
     31 C          11.1240   36.0785   10.0429 C.3     1  UNL1        0.1765
     32 O          10.7098   35.8913    8.6843 O.3     1  UNL1       -0.3260
     33 C          10.1614   34.5608    8.5083 C.3     1  UNL1        0.2658
     34 O           9.8169   34.5115    7.1236 O.3     1  UNL1       -0.3260
     35 C           9.0644   33.3795    6.6654 C.3     1  UNL1        0.1766
     36 C           7.8362   33.9873    5.9700 C.3     1  UNL1        0.1719
     37 O           6.6309   33.6565    6.6797 O.3     1  UNL1       -0.3794
     38 C           7.6969   33.5492    4.5115 C.3     1  UNL1        0.1964
     39 O           6.6212   34.3058    3.9326 O.3     1  UNL1       -0.3775
     40 C           8.9827   34.2544    9.5069 C.3     1  UNL1        0.1964
     41 O           7.7324   34.7952    9.0207 O.3     1  UNL1       -0.3775
     42 C           9.2546   34.7743   10.9475 C.3     1  UNL1        0.1719
     43 O          10.1395   33.8901   11.6337 O.3     1  UNL1       -0.3794
     44 C           8.5137   38.2225    8.2705 C.3     1  UNL1        0.1964
     45 O           9.6731   38.2086    7.4210 O.3     1  UNL1       -0.3775
     46 C           7.5444   39.3647    7.8949 C.3     1  UNL1        0.1719
     47 O           6.2045   38.8961    8.1855 O.3     1  UNL1       -0.3794
     48 C           9.4121   43.1198    6.2827 C.3     1  UNL1        0.1964
     49 O           8.4185   43.5599    5.3460 O.3     1  UNL1       -0.3775
     50 C          10.8089   43.1363    5.6214 C.3     1  UNL1        0.1719
     51 O          11.8221   43.5003    6.5699 O.3     1  UNL1       -0.3794
     52 C          10.9750   40.0302    2.1919 C.3     1  UNL1        0.1964
     53 O          11.8226   39.9600    1.0446 O.3     1  UNL1       -0.3775
     54 C           9.6026   39.3923    1.9310 C.3     1  UNL1        0.1719
     55 O           8.8612   39.1895    3.1398 O.3     1  UNL1       -0.3794
     56 C           8.5270   38.8299   -2.3548 C.3     1  UNL1        0.1964
     57 O           7.1534   39.2381   -2.2276 O.3     1  UNL1       -0.3775
     58 C           8.5623   37.4259   -3.0109 C.3     1  UNL1        0.1719
     59 O           8.6123   37.5804   -4.4350 O.3     1  UNL1       -0.3794
     60 C          10.1481   35.6106    0.7417 C.3     1  UNL1        0.1964
     61 O          11.1407   35.0063    1.5731 O.3     1  UNL1       -0.3775
     62 C           8.7333   35.5272    1.3618 C.3     1  UNL1        0.1719
     63 O           7.7526   36.2618    0.6072 O.3     1  UNL1       -0.3794
     64 H           6.7537   34.0247    7.5850 H       1  UNL1        0.2105
     65 H           5.8920   34.2516    4.5842 H       1  UNL1        0.2106
     66 H           7.6688   35.6992    9.3916 H       1  UNL1        0.2106
     67 H           9.9951   34.0085   12.5909 H       1  UNL1        0.2105
     68 H          10.0200   37.2839    7.4629 H       1  UNL1        0.2106
     69 H           6.1307   38.7720    9.1525 H       1  UNL1        0.2105
     70 H           7.5759   43.6233    5.8374 H       1  UNL1        0.2106
     71 H          11.6293   43.0555    7.4155 H       1  UNL1        0.2105
     72 H          11.2922   40.2244    0.2644 H       1  UNL1        0.2106
     73 H           9.0860   39.9068    3.7623 H       1  UNL1        0.2105
     74 H           6.7696   38.8043   -1.4443 H       1  UNL1        0.2106
     75 H           7.8355   38.1198   -4.6832 H       1  UNL1        0.2105
     76 H          10.8697   34.0801    1.7451 H       1  UNL1        0.2106
     77 H           7.8050   35.9473   -0.3178 H       1  UNL1        0.2105
     78 O          10.9910   31.0055    7.2285 O.3     1  UNL1       -0.3794
     79 C          11.2104   32.0498    6.2851 C.3     1  UNL1        0.1693
     80 H          11.8711   30.6800    7.4913 H       1  UNL1        0.2105
     81 C           8.2690   31.8540    0.1732 C.3     1  UNL1        0.1693
     82 O           7.5745   31.3890   -0.9871 O.3     1  UNL1       -0.3794
     83 H           8.0679   31.7625   -1.7435 H       1  UNL1        0.2105
     84 C          11.5706   38.1441   -3.3527 C.3     1  UNL1        0.1693
     85 O          11.6598   37.2346   -4.4493 O.3     1  UNL1       -0.3794
     86 H          12.0111   36.3977   -4.0870 H       1  UNL1        0.2105
     87 C           7.6256   42.0021    2.3586 C.3     1  UNL1        0.1693
     88 O           7.5358   43.3988    2.6262 O.3     1  UNL1       -0.3794
     89 H           8.2360   43.6020    3.2819 H       1  UNL1        0.2105
     90 C          12.4053   40.2038    6.6078 C.3     1  UNL1        0.1693
     91 O          12.5825   38.7956    6.4150 O.3     1  UNL1       -0.3794
     92 H          11.7436   38.4727    6.0200 H       1  UNL1        0.2105
     93 C           8.2496   41.6335   10.9540 C.3     1  UNL1        0.1693
     94 O           6.9819   42.2310   10.6803 O.3     1  UNL1       -0.3794
     95 H           6.3189   41.5336   10.6495 H       1  UNL1        0.2105
     96 C          12.1727   37.1882   10.2121 C.3     1  UNL1        0.1693
     97 O          12.3704   37.8651    8.9712 O.3     1  UNL1       -0.3794
     98 H          11.7091   38.5887    8.9466 H       1  UNL1        0.2105
@<TRIPOS>BOND
     1    78    79    1
     2    78    80    1
     3    79     1    1
     4     1     2    1
     5     1    35    1
     6     2     3    1
     7     3     4    1
     8     3    38    1
     9     4     5    1
    10     5     6    1
    11     5    62    1
    12     6     7    1
    13     6    81    1
    14    81    82    1
    15    82    83    1
    16     7     8    1
    17     8     9    1
    18     8    60    1
    19     9    10    1
    20    10    11    1
    21    10    58    1
    22    11    12    1
    23    11    84    1
    24    84    85    1
    25    85    86    1
    26    12    13    1
    27    13    14    1
    28    13    56    1
    29    14    15    1
    30    15    16    1
    31    15    54    1
    32    16    17    1
    33    16    87    1
    34    87    88    1
    35    88    89    1
    36    17    18    1
    37    18    19    1
    38    18    52    1
    39    19    20    1
    40    20    21    1
    41    20    50    1
    42    21    22    1
    43    21    90    1
    44    90    91    1
    45    91    92    1
    46    22    23    1
    47    23    24    1
    48    23    48    1
    49    24    25    1
    50    25    26    1
    51    25    46    1
    52    26    27    1
    53    26    93    1
    54    93    94    1
    55    94    95    1
    56    27    28    1
    57    28    29    1
    58    28    44    1
    59    29    30    1
    60    30    31    1
    61    30    42    1
    62    31    32    1
    63    31    96    1
    64    96    97    1
    65    97    98    1
    66    32    33    1
    67    33    34    1
    68    33    40    1
    69    34    35    1
    70    35    36    1
    71    36    38    1
    72    36    37    1
    73    37    64    1
    74    38    39    1
    75    39    65    1
    76    40    42    1
    77    40    41    1
    78    41    66    1
    79    42    43    1
    80    43    67    1
    81    44    46    1
    82    44    45    1
    83    45    68    1
    84    46    47    1
    85    47    69    1
    86    48    50    1
    87    48    49    1
    88    49    70    1
    89    50    51    1
    90    51    71    1
    91    52    54    1
    92    52    53    1
    93    53    72    1
    94    54    55    1
    95    55    73    1
    96    56    58    1
    97    56    57    1
    98    57    74    1
    99    58    59    1
   100    59    75    1
   101    60    62    1
   102    60    61    1
   103    61    76    1
   104    62    63    1
   105    63    77    1
#	Name:			CHEMBL415
#	Creating user name:	trannguyen
#	Creation time:		Tue Feb  8 18:26:14 2022


#	Modifying user name:	trannguyen
#	Modification time:	Tue Feb  8 18:26:14 2022

@<TRIPOS>MOLECULE
CHEMBL415
 22 24 0 0 0
SMALL
GASTEIGER

@<TRIPOS>ATOM
      1 N           3.4460   31.9882    9.1391 N.pl3   1  UNL1       -0.2873
      2 C           4.5908   32.7254    9.5163 C.ar    1  UNL1        0.0475
      3 C           4.4165   34.0437    9.9801 C.ar    1  UNL1        0.0145
      4 C           5.5033   34.8387   10.3432 C.ar    1  UNL1        0.0013
      5 C           6.7908   34.3292   10.2397 C.ar    1  UNL1       -0.0002
      6 C           6.9847   33.0237    9.7899 C.ar    1  UNL1       -0.0030
      7 C           5.8909   32.2117    9.4386 C.ar    1  UNL1       -0.0082
      8 C           6.1263   30.8017    8.9789 C.3     1  UNL1        0.0323
      9 C           5.4932   29.8025    9.9366 C.3     1  UNL1        0.0323
     10 C           3.9864   29.6597    9.8915 C.ar    1  UNL1       -0.0082
     11 C           3.4904   28.3941   10.2942 C.ar    1  UNL1       -0.0022
     12 C           2.1254   28.1236   10.3388 C.ar    1  UNL1        0.0112
     13 C           1.2323   29.1211   10.0020 C.ar    1  UNL1        0.0589
     14 CL         -0.4606   28.8251   10.0920 Cl      1  UNL1       -0.0822
     15 C           1.6981   30.3748    9.6050 C.ar    1  UNL1        0.0259
     16 C           3.0799   30.6739    9.5223 C.ar    1  UNL1        0.0484
     17 C           2.8351   32.4977    7.8787 C.3     1  UNL1        0.0970
     18 C           3.2808   31.6706    6.6654 C.3     1  UNL1        0.0391
     19 C           2.1056   31.2057    5.7991 C.3     1  UNL1        0.0739
     20 C           1.5998   33.1167    4.4293 C.3     1  UNL1        0.0897
     21 N           2.0994   31.7384    4.4266 N.3     1  UNL1       -0.2703
     22 C           3.4269   31.6966    3.8077 C.3     1  UNL1        0.0897
@<TRIPOS>BOND
     1    20    21    1
     2    21    22    1
     3    21    19    1
     4    19    18    1
     5    18    17    1
     6    17     1    1
     7     1     2    1
     8     1    16    1
     9     2     3   ar
    10     2     7   ar
    11     3     4   ar
    12     4     5   ar
    13     5     6   ar
    14     6     7   ar
    15     7     8    1
    16     8     9    1
    17     9    10    1
    18    10    11   ar
    19    10    16   ar
    20    11    12   ar
    21    12    13   ar
    22    13    14    1
    23    13    15   ar
    24    15    16   ar
#	Name:			CHEMBL416
#	Creating user name:	trannguyen
#	Creation time:		Tue Feb  8 18:26:14 2022


#	Modifying user name:	trannguyen
#	Modification time:	Tue Feb  8 18:26:14 2022

@<TRIPOS>MOLECULE
CHEMBL416
 16 18 0 0 0
SMALL
GASTEIGER

@<TRIPOS>ATOM
      1 C           3.7885   31.0325    9.3626 C.ar    1  UNL1        0.2073
      2 C           3.5895   31.7474    8.1793 C.ar    1  UNL1        0.1822
      3 O           4.4704   32.6200    7.6091 O.2     1  UNL1       -0.4472
      4 C           3.8916   33.0885    6.4740 C.ar    1  UNL1        0.1798
      5 C           2.6480   32.5278    6.2970 C.ar    1  UNL1        0.0438
      6 C           2.4404   31.6548    7.3984 C.ar    1  UNL1        0.0410
      7 C           1.4013   30.8004    7.8172 C.ar    1  UNL1        0.0064
      8 C           1.5555   30.0785    9.0118 C.ar    1  UNL1        0.0381
      9 C           0.5015   29.1959    9.4913 C.ar    1  UNL1        0.0098
     10 C           0.6653   28.5259   10.6355 C.ar    1  UNL1        0.0824
     11 C           1.8861   28.6408   11.4494 C.ar    1  UNL1        0.3460
     12 O           2.0104   27.9998   12.4863 O.2     1  UNL1       -0.2445
     13 O           2.8705   29.4941   10.9770 O.2     1  UNL1       -0.4178
     14 C           2.7287   30.2070    9.7621 C.ar    1  UNL1        0.1854
     15 C           5.9751   30.3545    9.6473 C.3     1  UNL1        0.2528
     16 O           4.9260   31.2055   10.1058 O.3     1  UNL1       -0.4654
@<TRIPOS>BOND
     1    15    16    1
     2    16     1    1
     3     1     2   ar
     4     1    14   ar
     5     2     3   ar
     6     2     6   ar
     7     3     4   ar
     8     4     5   ar
     9     5     6   ar
    10     6     7   ar
    11     7     8   ar
    12     8     9   ar
    13     8    14   ar
    14     9    10   ar
    15    10    11   ar
    16    11    12    2
    17    11    13   ar
    18    13    14   ar
#	Name:			CHEMBL417
#	Creating user name:	trannguyen
#	Creation time:		Tue Feb  8 18:26:14 2022


#	Modifying user name:	trannguyen
#	Modification time:	Tue Feb  8 18:26:14 2022

@<TRIPOS>MOLECULE
CHEMBL417
 46 50 0 0 0
SMALL
GASTEIGER

@<TRIPOS>ATOM
      1 C           8.7022   34.1999    2.3712 C.ar    1  UNL1        0.1418
      2 C           8.4564   34.6180    1.0535 C.ar    1  UNL1        0.0370
      3 C           7.1789   34.5568    0.5096 C.ar    1  UNL1        0.0032
      4 C           6.1142   34.1069    1.2836 C.ar    1  UNL1        0.0035
      5 C           6.3353   33.7027    2.6082 C.ar    1  UNL1        0.0451
      6 C           7.6218   33.7178    3.1541 C.ar    1  UNL1        0.0760
      7 C           7.8071   33.2012    4.5348 C.2     1  UNL1        0.2017
      8 O           8.9054   32.9877    5.0061 O.2     1  UNL1       -0.2864
      9 C           6.6131   32.8815    5.3685 C.ar    1  UNL1        0.0784
     10 C           6.7727   32.5637    6.7310 C.ar    1  UNL1        0.1349
     11 O           8.0123   32.5139    7.3140 O.3     1  UNL1       -0.5057
     12 C           5.6717   32.2828    7.5647 C.ar    1  UNL1        0.0376
     13 C           4.3965   32.1999    6.9829 C.ar    1  UNL1        0.0156
     14 C           4.2449   32.4947    5.6161 C.ar    1  UNL1        0.1328
     15 O           2.9698   32.3595    5.1304 O.3     1  UNL1       -0.5057
     16 C           5.3362   32.8841    4.8187 C.ar    1  UNL1        0.0783
     17 C           5.1519   33.2961    3.4132 C.2     1  UNL1        0.1989
     18 O           4.0313   33.3737    2.9491 O.2     1  UNL1       -0.2865
     19 C           3.1890   31.6950    7.7548 C.3     1  UNL1        0.0635
     20 C           3.3536   31.6668    9.2773 C.3     1  UNL1        0.1482
     21 O           3.1100   32.9772    9.8052 O.3     1  UNL1       -0.3793
     22 C           4.7698   31.1735    9.6371 C.3     1  UNL1        0.0688
     23 C           5.8605   32.0946    9.0595 C.3     1  UNL1        0.1454
     24 H           8.7039   32.6660    6.6272 H       1  UNL1        0.2922
     25 H           2.8199   33.0404    4.4416 H       1  UNL1        0.2922
     26 H           3.9759   33.3615   10.0529 H       1  UNL1        0.2108
     27 C          10.4318   35.6527    3.1350 C.3     1  UNL1        0.2525
     28 O           9.9449   34.3241    2.9382 O.3     1  UNL1       -0.4713
     29 C           2.2962   30.7120    9.8774 C.2     1  UNL1        0.2042
     30 O           2.4350   30.1931   10.9906 O.2     1  UNL1       -0.2910
     31 C           1.0484   30.4142    9.0390 C.3     1  UNL1        0.2044
     32 O           0.0256   31.3895    9.1940 O.3     1  UNL1       -0.3749
     33 H           0.4562   32.2608    9.1094 H       1  UNL1        0.2110
     34 O           5.7193   33.3304    9.7866 O.3     1  UNL1       -0.3283
     35 C           6.3490   33.3839   11.0665 C.3     1  UNL1        0.2368
     36 C           7.6422   32.5687   10.9806 C.3     1  UNL1        0.0793
     37 C           8.6273   33.2786   10.0558 C.3     1  UNL1        0.0855
     38 N           9.9069   32.5537    9.9363 N.3     1  UNL1       -0.3201
     39 C           8.8789   34.7090   10.5670 C.3     1  UNL1        0.1517
     40 O           9.7332   35.3900    9.6465 O.3     1  UNL1       -0.3806
     41 C           7.5449   35.4480   10.7373 C.3     1  UNL1        0.1458
     42 C           7.7488   36.7841   11.4480 C.3     1  UNL1        0.0348
     43 O           6.6276   34.6960   11.5344 O.3     1  UNL1       -0.3304
     44 H           9.7280   31.6249    9.5507 H       1  UNL1        0.1189
     45 H          10.2995   32.3939   10.8653 H       1  UNL1        0.1189
     46 H          10.3763   34.7098    9.3584 H       1  UNL1        0.2105
@<TRIPOS>BOND
     1    27    28    1
     2    28     1    1
     3     1     2   ar
     4     1     6   ar
     5     2     3   ar
     6     3     4   ar
     7     4     5   ar
     8     5     6   ar
     9     5    17    1
    10     6     7    1
    11     7     8    2
    12     7     9    1
    13     9    10   ar
    14     9    16   ar
    15    10    11    1
    16    10    12   ar
    17    11    24    1
    18    12    13   ar
    19    12    23    1
    20    13    14   ar
    21    13    19    1
    22    14    15    1
    23    14    16   ar
    24    15    25    1
    25    16    17    1
    26    17    18    2
    27    19    20    1
    28    20    22    1
    29    20    29    1
    30    20    21    1
    31    21    26    1
    32    29    30    2
    33    29    31    1
    34    31    32    1
    35    32    33    1
    36    22    23    1
    37    23    34    1
    38    34    35    1
    39    35    36    1
    40    35    43    1
    41    36    37    1
    42    37    38    1
    43    37    39    1
    44    38    44    1
    45    38    45    1
    46    39    41    1
    47    39    40    1
    48    40    46    1
    49    41    42    1
    50    41    43    1
#	Name:			CHEMBL418971
#	Creating user name:	trannguyen
#	Creation time:		Tue Feb  8 18:26:14 2022


#	Modifying user name:	trannguyen
#	Modification time:	Tue Feb  8 18:26:14 2022

@<TRIPOS>MOLECULE
CHEMBL418971
 19 20 0 0 0
SMALL
GASTEIGER

@<TRIPOS>ATOM
      1 C           4.6531   32.2428    9.5088 C.3     1  UNL1        0.0088
      2 C           3.2411   31.7125    9.1390 C.3     1  UNL1        0.0377
      3 C           2.2462   32.6898    9.8219 C.3     1  UNL1        0.0088
      4 C           3.1513   31.7122    7.5934 C.ar    1  UNL1       -0.0188
      5 C           4.2386   32.1936    6.8324 C.ar    1  UNL1       -0.0009
      6 C           4.1964   32.2233    5.4357 C.ar    1  UNL1        0.0363
      7 C           3.0647   31.7630    4.7786 C.ar    1  UNL1        0.1337
      8 O           2.9766   31.7730    3.4184 O.3     1  UNL1       -0.5055
      9 C           1.9821   31.2743    5.4956 C.ar    1  UNL1        0.0363
     10 C           2.0235   31.2492    6.8933 C.ar    1  UNL1       -0.0009
     11 H           3.7982   32.1477    3.0604 H       1  UNL1        0.2922
     12 C           2.9419   30.2996    9.6966 C.ar    1  UNL1       -0.0188
     13 C           3.9804   29.3464    9.7722 C.ar    1  UNL1       -0.0009
     14 C           3.7560   28.0578   10.2656 C.ar    1  UNL1        0.0363
     15 C           2.4858   27.7068   10.6984 C.ar    1  UNL1        0.1337
     16 O           2.2180   26.4647   11.1918 O.3     1  UNL1       -0.5055
     17 C           1.4427   28.6208   10.6419 C.ar    1  UNL1        0.0363
     18 C           1.6681   29.9080   10.1429 C.ar    1  UNL1       -0.0009
     19 H           3.0388   25.9462   11.1782 H       1  UNL1        0.2922
@<TRIPOS>BOND
     1     1     2    1
     2     2     3    1
     3     2     4    1
     4     2    12    1
     5     4     5   ar
     6     4    10   ar
     7     5     6   ar
     8     6     7   ar
     9     7     8    1
    10     7     9   ar
    11     8    11    1
    12     9    10   ar
    13    12    13   ar
    14    12    18   ar
    15    13    14   ar
    16    14    15   ar
    17    15    16    1
    18    15    17   ar
    19    16    19    1
    20    17    18   ar
#	Name:			CHEMBL41
#	Creating user name:	trannguyen
#	Creation time:		Tue Feb  8 18:26:14 2022


#	Modifying user name:	trannguyen
#	Modification time:	Tue Feb  8 18:26:14 2022

@<TRIPOS>MOLECULE
CHEMBL41
 23 24 0 0 0
SMALL
GASTEIGER

@<TRIPOS>ATOM
      1 C           2.5152   31.6896    9.2558 C.3     1  UNL1        0.1895
      2 C           2.8950   30.2377    9.5601 C.ar    1  UNL1        0.0172
      3 C           1.9118   29.2547    9.8030 C.ar    1  UNL1       -0.0008
      4 C           2.2651   27.9465   10.1531 C.ar    1  UNL1       -0.0002
      5 C           3.5936   27.5901   10.2699 C.ar    1  UNL1       -0.0000
      6 C           4.5877   28.5349    9.9989 C.ar    1  UNL1       -0.0002
      7 C           4.2417   29.8526    9.6547 C.ar    1  UNL1       -0.0008
      8 C           1.4927   31.8829    8.1138 C.3     1  UNL1        0.0653
      9 C           1.9905   31.6381    6.6857 C.3     1  UNL1        0.0727
     10 C           1.8253   32.2020    4.3629 C.3     1  UNL1        0.0859
     11 N           1.1599   32.2769    5.6638 N.3     1  UNL1       -0.2962
     12 H           0.2665   31.7886    5.6052 H       1  UNL1        0.1233
     13 O           1.8753   32.2500   10.4396 O.3     1  UNL1       -0.4747
     14 C           1.5499   33.5813   10.4581 C.ar    1  UNL1        0.1388
     15 C           2.5859   34.4945   10.2388 C.ar    1  UNL1        0.0369
     16 C           2.3375   35.8786   10.1942 C.ar    1  UNL1        0.0070
     17 C           1.0325   36.3673   10.3490 C.ar    1  UNL1        0.0716
     18 C          -0.0032   35.4440   10.5377 C.ar    1  UNL1        0.0070
     19 C           0.2491   34.0658   10.5888 C.ar    1  UNL1        0.0369
     20 C           0.7160   37.8450   10.3079 C.3     1  UNL1        0.4186
     21 F          -0.4661   38.1766   10.8979 F       1  UNL1       -0.1659
     22 F           1.6663   38.6004   10.9280 F       1  UNL1       -0.1659
     23 F           0.6409   38.3227    9.0331 F       1  UNL1       -0.1659
@<TRIPOS>BOND
     1    10    11    1
     2    11     9    1
     3    11    12    1
     4     9     8    1
     5     8     1    1
     6     1    13    1
     7     1     2    1
     8    13    14    1
     9    14    15   ar
    10    14    19   ar
    11    15    16   ar
    12    16    17   ar
    13    17    20    1
    14    17    18   ar
    15    20    21    1
    16    20    22    1
    17    20    23    1
    18    18    19   ar
    19     2     3   ar
    20     2     7   ar
    21     3     4   ar
    22     4     5   ar
    23     5     6   ar
    24     6     7   ar
#	Name:			CHEMBL420
#	Creating user name:	trannguyen
#	Creation time:		Tue Feb  8 18:26:14 2022


#	Modifying user name:	trannguyen
#	Modification time:	Tue Feb  8 18:26:14 2022

@<TRIPOS>MOLECULE
CHEMBL420
 18 18 0 0 0
SMALL
GASTEIGER

@<TRIPOS>ATOM
      1 N           2.4118   32.6139   10.2386 N.2     1  UNL1       -0.1091
      2 C           2.4249   31.6882    9.3335 C.2     1  UNL1        0.1376
      3 C           2.8626   30.3016    9.6205 C.ar    1  UNL1        0.0433
      4 C           1.8857   29.2984    9.7577 C.ar    1  UNL1        0.0601
      5 CL          0.1877   29.6080    9.6126 Cl      1  UNL1       -0.0822
      6 C           2.2533   27.9791   10.0532 C.ar    1  UNL1        0.0115
      7 C           3.5947   27.6394   10.1966 C.ar    1  UNL1        0.0017
      8 C           4.5710   28.6205   10.0483 C.ar    1  UNL1        0.0115
      9 C           4.2152   29.9484    9.7695 C.ar    1  UNL1        0.0601
     10 CL          5.5351   31.0526    9.5834 Cl      1  UNL1       -0.0822
     11 N           1.9494   33.8273    9.8200 N.pl3   1  UNL1       -0.1544
     12 H           0.9827   33.9651    9.5364 H       1  UNL1        0.2922
     13 N           2.9153   35.5717    8.6235 N.pl3   1  UNL1       -0.1280
     14 C           2.6980   34.9617    9.7372 C.cat   1  UNL1        0.3997
     15 N           3.2033   35.3837   10.9172 N.pl3   1  UNL1       -0.2876
     16 H           3.4608   36.4113    8.8297 H       1  UNL1        0.3062
     17 H           4.1340   35.7720   10.8715 H       1  UNL1        0.2547
     18 H           3.1275   34.6281   11.5978 H       1  UNL1        0.2547
@<TRIPOS>BOND
     1    13    14    2
     2    13    16    1
     3    14    15    1
     4    14    11    1
     5    15    17    1
     6    15    18    1
     7    11     1    1
     8    11    12    1
     9     1     2    2
    10     2     3    1
    11     3     4   ar
    12     3     9   ar
    13     4     5    1
    14     4     6   ar
    15     6     7   ar
    16     7     8   ar
    17     8     9   ar
    18     9    10    1
#	Name:			CHEMBL4213010
#	Creating user name:	trannguyen
#	Creation time:		Tue Feb  8 18:26:14 2022


#	Modifying user name:	trannguyen
#	Modification time:	Tue Feb  8 18:26:14 2022

@<TRIPOS>MOLECULE
CHEMBL4213010
 32 35 0 0 0
SMALL
GASTEIGER

@<TRIPOS>ATOM
      1 C           7.3271   32.9311    0.6262 C.3     1  UNL1        0.0003
      2 C           6.7405   34.3073    1.0019 C.3     1  UNL1        0.0003
      3 C           6.7921   35.1386   -0.2726 C.3     1  UNL1        0.0037
      4 C           8.1547   34.7870   -0.9005 C.3     1  UNL1        0.0146
      5 C           9.2711   35.5419   -0.1216 C.3     1  UNL1        0.0040
      6 C           8.2316   35.2125   -2.3898 C.2     1  UNL1       -0.0527
      7 C           8.3563   34.3357   -3.4234 C.2     1  UNL1       -0.0527
      8 C           8.2397   32.8440   -3.1707 C.3     1  UNL1        0.0214
      9 C           7.5753   32.5008   -1.8455 C.3     1  UNL1        0.0046
     10 C           8.2415   33.2233   -0.6457 C.3     1  UNL1        0.0035
     11 C           9.7056   32.7546   -0.5587 C.3     1  UNL1        0.0003
     12 C           8.6488   34.7738   -4.9017 C.3     1  UNL1        0.0147
     13 C           9.9517   34.0354   -5.3041 C.3     1  UNL1        0.0040
     14 C           7.4753   34.3068   -5.8039 C.3     1  UNL1        0.0062
     15 C           7.5486   34.7949   -7.2487 C.3     1  UNL1        0.0295
     16 C           7.6128   36.3157   -7.3407 C.3     1  UNL1        0.1104
     17 O           6.3744   36.8490   -6.8705 O.3     1  UNL1       -0.3845
     18 C           8.7976   36.9165   -6.5417 C.3     1  UNL1        0.0250
     19 C          10.1192   36.6382   -7.3082 C.3     1  UNL1        0.0024
     20 C           8.6748   38.4660   -6.5467 C.3     1  UNL1        0.0024
     21 C           8.8617   36.3405   -5.0569 C.3     1  UNL1        0.0060
     22 C           7.8935   37.0639   -4.0977 C.3     1  UNL1        0.0047
     23 C           8.1911   36.6971   -2.6496 C.3     1  UNL1        0.0214
     24 H           5.6622   36.4633   -7.4085 H       1  UNL1        0.2103
     25 C           7.8648   32.1533    1.8792 C.3     1  UNL1        0.0000
     26 C           7.3015   30.7250    1.9674 C.3     1  UNL1        0.0000
     27 C           7.5180   32.9339    3.1925 C.3     1  UNL1        0.0000
     28 C           7.0544   32.0413    4.3573 C.3     1  UNL1        0.0000
     29 C           5.6656   32.4202    4.8948 C.3     1  UNL1        0.0000
     30 C           3.6660   31.1945    3.9427 C.3     1  UNL1        0.0000
     31 C           4.5710   32.4229    3.8015 C.3     1  UNL1        0.0000
     32 C           3.7055   33.6866    3.8175 C.3     1  UNL1        0.0000
@<TRIPOS>BOND
     1    30    31    1
     2    31    32    1
     3    31    29    1
     4    29    28    1
     5    28    27    1
     6    27    25    1
     7    25    26    1
     8    25     1    1
     9     1     2    1
    10     1    10    1
    11     2     3    1
    12     3     4    1
    13     4     6    1
    14     4    10    1
    15     4     5    1
    16     6     7    2
    17     6    23    1
    18     7     8    1
    19     7    12    1
    20     8     9    1
    21     9    10    1
    22    10    11    1
    23    12    14    1
    24    12    21    1
    25    12    13    1
    26    14    15    1
    27    15    16    1
    28    16    18    1
    29    16    17    1
    30    17    24    1
    31    18    21    1
    32    18    19    1
    33    18    20    1
    34    21    22    1
    35    22    23    1
#	Name:			CHEMBL421
#	Creating user name:	trannguyen
#	Creation time:		Tue Feb  8 18:26:14 2022


#	Modifying user name:	trannguyen
#	Modification time:	Tue Feb  8 18:26:14 2022

@<TRIPOS>MOLECULE
CHEMBL421
 31 33 0 0 0
SMALL
GASTEIGER

@<TRIPOS>ATOM
      1 C           3.6884   32.2366    5.7666 C.ar    1  UNL1        0.1030
      2 C           2.6153   31.3331    5.6842 C.ar    1  UNL1        0.0223
      3 C           1.7075   31.1885    6.7244 C.ar    1  UNL1        0.0218
      4 C           1.8622   31.9544    7.8749 C.ar    1  UNL1        0.1253
      5 C           2.9054   32.8840    7.9809 C.ar    1  UNL1        0.0218
      6 C           3.8182   33.0151    6.9270 C.ar    1  UNL1        0.0223
      7 S           0.8009   31.6594    9.2695 S.O2    1  UNL1        0.0747
      8 O           0.1896   32.9258    9.6486 O.2     1  UNL1       -0.1499
      9 O          -0.0080   30.5174    8.9269 O.2     1  UNL1       -0.1499
     10 N           1.8484   31.1773   10.4910 N.pl3   1  UNL1       -0.1989
     11 H           1.3307   31.0997   11.3647 H       1  UNL1        0.1753
     12 C           2.5359   29.9708   10.2788 C.ar    1  UNL1        0.1470
     13 C           3.8453   29.9222    9.8343 C.ar    1  UNL1        0.0356
     14 C           4.4582   28.6735    9.7905 C.ar    1  UNL1        0.0045
     15 C           3.7294   27.5426   10.1504 C.ar    1  UNL1        0.0208
     16 C           2.4063   27.7055   10.5296 C.ar    1  UNL1        0.1004
     17 N           1.7937   28.9043   10.6152 N.ar    1  UNL1       -0.2279
     18 N           5.4054   33.3530    4.9356 N.2     1  UNL1       -0.1480
     19 N           4.6345   32.3882    4.7306 N.2     1  UNL1       -0.1480
     20 C           7.5298   32.5797    1.9976 C.ar    1  UNL1        0.1106
     21 C           6.5841   32.4622    3.0288 C.ar    1  UNL1        0.0304
     22 C           6.3670   33.5144    3.9284 C.ar    1  UNL1        0.1033
     23 C           7.1375   34.6760    3.8124 C.ar    1  UNL1        0.0240
     24 C           8.0788   34.8106    2.7988 C.ar    1  UNL1        0.0384
     25 C           8.2676   33.7676    1.8939 C.ar    1  UNL1        0.1399
     26 O           9.1924   33.9253    0.8940 O.3     1  UNL1       -0.5053
     27 H           9.5871   34.8147    0.9789 H       1  UNL1        0.2922
     28 O           8.0114   31.5557   -0.1006 O.2     1  UNL1       -0.2450
     29 C           7.6780   31.4216    1.0657 C.2     1  UNL1        0.3410
     30 O           7.4203   30.2121    1.6064 O.3     1  UNL1       -0.4770
     31 H           7.1655   30.2703    2.5539 H       1  UNL1        0.2954
@<TRIPOS>BOND
     1    28    29    2
     2    29    30    1
     3    29    20    1
     4    30    31    1
     5    20    21   ar
     6    20    25   ar
     7    21    22   ar
     8    22    18    1
     9    22    23   ar
    10    18    19    2
    11    19     1    1
    12     1     2   ar
    13     1     6   ar
    14     2     3   ar
    15     3     4   ar
    16     4     7    1
    17     4     5   ar
    18     7     8    2
    19     7     9    2
    20     7    10    1
    21    10    12    1
    22    10    11    1
    23    12    13   ar
    24    12    17   ar
    25    13    14   ar
    26    14    15   ar
    27    15    16   ar
    28    16    17   ar
    29     5     6   ar
    30    23    24   ar
    31    24    25   ar
    32    25    26    1
    33    26    27    1
#	Name:			CHEMBL422
#	Creating user name:	trannguyen
#	Creation time:		Tue Feb  8 18:26:14 2022


#	Modifying user name:	trannguyen
#	Modification time:	Tue Feb  8 18:26:14 2022

@<TRIPOS>MOLECULE
CHEMBL422
 28 31 0 0 0
SMALL
GASTEIGER

@<TRIPOS>ATOM
      1 N           6.3457   32.0013    6.9193 N.pl3   1  UNL1       -0.2861
      2 C           7.7561   31.8087    6.9983 C.ar    1  UNL1        0.0576
      3 C           8.2885   30.9552    7.9851 C.ar    1  UNL1        0.0153
      4 C           9.6666   30.7596    8.1073 C.ar    1  UNL1        0.0013
      5 C          10.5369   31.4074    7.2416 C.ar    1  UNL1        0.0006
      6 C          10.0314   32.2460    6.2485 C.ar    1  UNL1        0.0077
      7 C           8.6473   32.4434    6.1145 C.ar    1  UNL1        0.0431
      8 S           8.1045   33.5809    4.8521 S.3     1  UNL1       -0.0844
      9 C           6.3650   33.2097    4.7571 C.ar    1  UNL1        0.0431
     10 C           5.6612   33.6928    3.6422 C.ar    1  UNL1        0.0077
     11 C           4.2974   33.4343    3.4911 C.ar    1  UNL1        0.0044
     12 C           3.6153   32.6771    4.4459 C.ar    1  UNL1        0.0727
     13 C           4.3218   32.2108    5.5683 C.ar    1  UNL1        0.0192
     14 C           5.6894   32.4928    5.7571 C.ar    1  UNL1        0.0576
     15 C           2.1507   32.3503    4.2985 C.3     1  UNL1        0.4186
     16 F           1.6887   31.4785    5.2380 F       1  UNL1       -0.1659
     17 F           1.3565   33.4522    4.3892 F       1  UNL1       -0.1659
     18 F           1.8662   31.7828    3.0932 F       1  UNL1       -0.1659
     19 C           5.7754   32.5600    8.1824 C.3     1  UNL1        0.0970
     20 C           5.3331   31.4509    9.1484 C.3     1  UNL1        0.0391
     21 C           3.8771   31.0233    8.9510 C.3     1  UNL1        0.0739
     22 C          -0.3282   28.9006   10.2116 C.3     1  UNL1        0.0897
     23 N           0.6889   29.2746    9.2355 N.3     1  UNL1       -0.2691
     24 C           0.7935   30.7393    9.0859 C.3     1  UNL1        0.0897
     25 C           1.7259   31.4515   10.0927 C.3     1  UNL1        0.0897
     26 N           3.0833   30.8726   10.1866 N.3     1  UNL1       -0.2703
     27 C           2.9160   29.4370   10.5137 C.3     1  UNL1        0.0897
     28 C           1.9941   28.6558    9.5410 C.3     1  UNL1        0.0897
@<TRIPOS>BOND
     1    22    23    1
     2    23    24    1
     3    23    28    1
     4    24    25    1
     5    25    26    1
     6    26    21    1
     7    26    27    1
     8    21    20    1
     9    20    19    1
    10    19     1    1
    11     1     2    1
    12     1    14    1
    13     2     3   ar
    14     2     7   ar
    15     3     4   ar
    16     4     5   ar
    17     5     6   ar
    18     6     7   ar
    19     7     8    1
    20     8     9    1
    21     9    10   ar
    22     9    14   ar
    23    10    11   ar
    24    11    12   ar
    25    12    15    1
    26    12    13   ar
    27    15    16    1
    28    15    17    1
    29    15    18    1
    30    13    14   ar
    31    27    28    1
#	Name:			CHEMBL423192
#	Creating user name:	trannguyen
#	Creation time:		Tue Feb  8 18:26:14 2022


#	Modifying user name:	trannguyen
#	Modification time:	Tue Feb  8 18:26:14 2022

@<TRIPOS>MOLECULE
CHEMBL423192
 21 22 0 0 0
SMALL
GASTEIGER

@<TRIPOS>ATOM
      1 C           3.4539   32.7101    6.4647 C.3     1  UNL1        0.1016
      2 N           3.1193   34.1265    6.1695 N.3     1  UNL1       -0.2932
      3 C           2.5372   34.0534    4.8246 C.3     1  UNL1        0.1020
      4 C           3.4206   33.0809    4.0578 C.3     1  UNL1        0.1674
      5 O           2.6463   32.4040    3.0759 O.3     1  UNL1       -0.3794
      6 C           3.9678   32.1153    5.1258 C.3     1  UNL1        0.2112
      7 H           3.9853   34.6651    6.1255 H       1  UNL1        0.1234
      8 H           3.0407   32.6145    2.2102 H       1  UNL1        0.2106
      9 C           4.3946   32.5795    7.6819 C.3     1  UNL1        0.0458
     10 C           3.4858   29.3228   10.3958 C.ar    1  UNL1        0.1387
     11 C           2.4628   29.9840    9.7162 C.ar    1  UNL1        0.0366
     12 C           2.7585   31.0328    8.8361 C.ar    1  UNL1       -0.0011
     13 C           4.0867   31.4291    8.6184 C.ar    1  UNL1       -0.0205
     14 C           5.1030   30.7155    9.2633 C.ar    1  UNL1       -0.0011
     15 C           4.8071   29.6821   10.1506 C.ar    1  UNL1        0.0366
     16 C           1.6997   28.0746   11.2849 C.3     1  UNL1        0.2525
     17 O           3.1044   28.3170   11.2418 O.3     1  UNL1       -0.4714
     18 O           5.4117   32.0879    5.0889 O.3     1  UNL1       -0.4483
     19 C           5.9578   31.5491    3.9604 C.2     1  UNL1        0.3176
     20 C           7.2752   32.1964    3.6666 C.3     1  UNL1        0.1212
     21 O           5.4476   30.7018    3.2553 O.2     1  UNL1       -0.2501
@<TRIPOS>BOND
     1    16    17    1
     2    17    10    1
     3    10    11   ar
     4    10    15   ar
     5    11    12   ar
     6    12    13   ar
     7    13     9    1
     8    13    14   ar
     9     9     1    1
    10     1     2    1
    11     1     6    1
    12     2     3    1
    13     2     7    1
    14     3     4    1
    15     4     5    1
    16     4     6    1
    17     5     8    1
    18     6    18    1
    19    18    19    1
    20    19    20    1
    21    19    21    2
    22    14    15   ar
#	Name:			CHEMBL4243267
#	Creating user name:	trannguyen
#	Creation time:		Tue Feb  8 18:26:14 2022


#	Modifying user name:	trannguyen
#	Modification time:	Tue Feb  8 18:26:14 2022

@<TRIPOS>MOLECULE
CHEMBL4243267
 25 27 0 0 0
SMALL
GASTEIGER

@<TRIPOS>ATOM
      1 C           4.4573   32.4779    3.6231 C.3     1  UNL1        0.1362
      2 C           4.1623   33.9030    4.1456 C.3     1  UNL1        0.0897
      3 C           2.7453   34.0303    4.7274 C.3     1  UNL1        0.1251
      4 O           2.6545   35.1962    5.5439 O.3     1  UNL1       -0.3839
      5 C           2.3273   32.7971    5.5516 C.3     1  UNL1        0.1248
      6 C           2.4179   31.6078    4.6310 C.3     1  UNL1        0.1938
      7 N           3.8669   31.4363    4.4953 N.4     1  UNL1        0.4919
      8 O           4.3927   31.7228    5.8457 O.3     1  UNL1       -0.2596
      9 C           3.3763   32.4297    6.6013 C.3     1  UNL1        0.1985
     10 H           2.9101   35.9597    4.9962 H       1  UNL1        0.2103
     11 C           2.8809   31.5792    7.7636 C.ar    1  UNL1        0.0105
     12 C           1.5247   31.2488    7.9158 C.ar    1  UNL1       -0.0017
     13 C           1.0873   30.4377    8.9642 C.ar    1  UNL1       -0.0002
     14 C           2.0090   29.9325    9.8786 C.ar    1  UNL1       -0.0000
     15 C           3.3595   30.2331    9.7364 C.ar    1  UNL1       -0.0002
     16 C           3.7981   31.0472    8.6879 C.ar    1  UNL1       -0.0017
     17 C           5.9825   32.2639    3.4480 C.3     1  UNL1        0.0604
     18 C           6.8219   33.3329    4.1586 C.3     1  UNL1        0.0060
     19 C           8.0989   32.7618    4.7843 C.3     1  UNL1        0.0002
     20 C           7.9395   32.6767    6.3028 C.3     1  UNL1        0.0000
     21 C           8.1886   31.2667    6.8404 C.3     1  UNL1        0.0000
     22 C           7.4204   30.9869    8.1381 C.3     1  UNL1        0.0000
     23 C           8.0329   31.6952    9.3496 C.3     1  UNL1        0.0000
     24 C           7.2145   33.1823   11.2003 C.3     1  UNL1        0.0000
     25 C           7.0309   31.8497   10.4897 C.3     1  UNL1        0.0000
@<TRIPOS>UNITY_ATOM_ATTR
7 1
charge 1
@<TRIPOS>BOND
     1    24    25    1
     2    25    23    1
     3    23    22    1
     4    22    21    1
     5    21    20    1
     6    20    19    1
     7    19    18    1
     8    18    17    1
     9     1     2    1
    10     1     7    1
    11     1    17    1
    12     2     3    1
    13     3     4    1
    14     3     5    1
    15     4    10    1
    16     5     6    1
    17     5     9    1
    18     6     7    1
    19     7     8    1
    20     8     9    1
    21     9    11    1
    22    11    12   ar
    23    11    16   ar
    24    12    13   ar
    25    13    14   ar
    26    14    15   ar
    27    15    16   ar
#	Name:			CHEMBL42442
#	Creating user name:	trannguyen
#	Creation time:		Tue Feb  8 18:26:14 2022


#	Modifying user name:	trannguyen
#	Modification time:	Tue Feb  8 18:26:14 2022

@<TRIPOS>MOLECULE
CHEMBL42442
 24 26 0 0 0
SMALL
GASTEIGER

@<TRIPOS>ATOM
      1 C           5.9794   32.2853    3.9316 C.ar    1  UNL1        0.2029
      2 N           5.8785   32.6748    5.1812 N.ar    1  UNL1       -0.2136
      3 C           4.6456   32.2546    5.6059 C.ar    1  UNL1        0.1002
      4 C           4.0236   32.4310    6.8471 C.ar    1  UNL1        0.0286
      5 C           2.7371   31.9003    7.0274 C.ar    1  UNL1        0.0494
      6 C           2.0786   31.2472    5.9743 C.ar    1  UNL1        0.0095
      7 C           2.6951   31.0531    4.7337 C.ar    1  UNL1        0.0191
      8 C           3.9829   31.5677    4.5980 C.ar    1  UNL1        0.0766
      9 N           4.8753   31.5635    3.5591 N.ar    1  UNL1       -0.3252
     10 H           4.7331   31.1245    2.6627 H       1  UNL1        0.1686
     11 C           7.4021   31.5559    2.1401 C.2     1  UNL1        0.4076
     12 O           6.9862   30.4303    1.9675 O.2     1  UNL1       -0.2260
     13 N           6.9977   32.5001    3.0462 N.am    1  UNL1       -0.2212
     14 H           7.5296   33.3542    3.0558 H       1  UNL1        0.1610
     15 C           8.1549   32.1608    0.0129 C.3     1  UNL1        0.2574
     16 O           8.4099   32.1126    1.4161 O.3     1  UNL1       -0.4303
     17 S           1.9439   32.0742    8.6449 S.3     1  UNL1        0.0224
     18 O           0.3963   31.9413    8.3922 O.3     1  UNL1       -0.1520
     19 C           2.5060   30.4532    9.2573 C.ar    1  UNL1        0.0478
     20 C           1.5724   29.4453    9.5314 C.ar    1  UNL1        0.0079
     21 C           1.9874   28.2156   10.0475 C.ar    1  UNL1        0.0006
     22 C           3.3385   27.9848   10.2985 C.ar    1  UNL1        0.0000
     23 C           4.2763   28.9796   10.0286 C.ar    1  UNL1        0.0006
     24 C           3.8626   30.2120    9.5171 C.ar    1  UNL1        0.0079
@<TRIPOS>BOND
     1    15    16    1
     2    16    11    1
     3    11    12    2
     4    11    13   am
     5    13     1    1
     6    13    14    1
     7     1     2   ar
     8     1     9   ar
     9     2     3   ar
    10     3     4   ar
    11     3     8   ar
    12     4     5   ar
    13     5    17    1
    14     5     6   ar
    15    17    18    1
    16    17    19    1
    17    19    20   ar
    18    19    24   ar
    19    20    21   ar
    20    21    22   ar
    21    22    23   ar
    22    23    24   ar
    23     6     7   ar
    24     7     8   ar
    25     8     9   ar
    26     9    10    1
#	Name:			CHEMBL424
#	Creating user name:	trannguyen
#	Creation time:		Tue Feb  8 18:26:14 2022


#	Modifying user name:	trannguyen
#	Modification time:	Tue Feb  8 18:26:14 2022

@<TRIPOS>MOLECULE
CHEMBL424
 12 12 0 0 0
SMALL
GASTEIGER

@<TRIPOS>ATOM
      1 C           1.7492   28.8443   10.2834 C.ar    1  UNL1        0.1090
      2 C           2.8537   29.5512    9.7823 C.ar    1  UNL1        0.0095
      3 C           2.6746   30.6348    8.9197 C.ar    1  UNL1        0.0004
      4 C           1.3895   31.0237    8.5482 C.ar    1  UNL1        0.0031
      5 C           0.2804   30.3324    9.0366 C.ar    1  UNL1        0.0368
      6 C           0.4620   29.2483    9.8997 C.ar    1  UNL1        0.1398
      7 O          -0.6398   28.5788   10.3713 O.3     1  UNL1       -0.5053
      8 H          -1.4391   28.9966    9.9974 H       1  UNL1        0.2922
      9 O           2.0666   27.8239   12.4143 O.2     1  UNL1       -0.2450
     10 C           2.0319   27.6993   11.1998 C.2     1  UNL1        0.3410
     11 O           2.2462   26.5134   10.5926 O.3     1  UNL1       -0.4770
     12 H           2.1845   26.5813    9.6139 H       1  UNL1        0.2954
@<TRIPOS>BOND
     1     9    10    2
     2    10    11    1
     3    10     1    1
     4    11    12    1
     5     1     2   ar
     6     1     6   ar
     7     2     3   ar
     8     3     4   ar
     9     4     5   ar
    10     5     6   ar
    11     6     7    1
    12     7     8    1
#	Name:			CHEMBL426123
#	Creating user name:	trannguyen
#	Creation time:		Tue Feb  8 18:26:14 2022


#	Modifying user name:	trannguyen
#	Modification time:	Tue Feb  8 18:26:14 2022

@<TRIPOS>MOLECULE
CHEMBL426123
 20 22 0 0 0
SMALL
GASTEIGER

@<TRIPOS>ATOM
      1 N           3.2653   31.4410    8.1749 N.am    1  UNL1       -0.2158
      2 C           3.8286   30.6136    9.1091 C.2     1  UNL1        0.2554
      3 O           5.0009   30.4735    9.3996 O.2     1  UNL1       -0.2695
      4 C           2.7381   29.8396    9.6982 C.ar    1  UNL1        0.0584
      5 C           2.7533   28.8795   10.6905 C.ar    1  UNL1        0.0047
      6 C           1.5286   28.2981   11.0342 C.ar    1  UNL1        0.0001
      7 C           0.3368   28.6830   10.3848 C.ar    1  UNL1        0.0001
      8 C           0.3491   29.6556    9.3799 C.ar    1  UNL1        0.0047
      9 C           1.5705   30.2150    9.0603 C.ar    1  UNL1        0.0584
     10 C           1.9183   31.2313    8.0705 C.2     1  UNL1        0.2554
     11 O           1.1197   31.7607    7.3226 O.2     1  UNL1       -0.2695
     12 O           2.1302   34.2166    4.1567 O.2     1  UNL1       -0.2747
     13 C           2.7204   33.6467    5.0712 C.2     1  UNL1        0.2282
     14 C           3.1514   32.2041    4.9701 C.3     1  UNL1        0.0877
     15 C           4.2901   31.8773    5.9189 C.3     1  UNL1        0.0392
     16 C           4.0430   32.3531    7.3482 C.3     1  UNL1        0.1598
     17 C           3.4447   33.7561    7.4258 C.2     1  UNL1        0.2466
     18 O           3.3195   34.3646    8.4881 O.2     1  UNL1       -0.2729
     19 N           2.9702   34.2936    6.2544 N.am    1  UNL1       -0.2540
     20 H           2.5622   35.2154    6.3306 H       1  UNL1        0.1576
@<TRIPOS>BOND
     1    12    13    2
     2    13    14    1
     3    13    19   am
     4    14    15    1
     5    15    16    1
     6    16     1    1
     7    16    17    1
     8     1     2   am
     9     1    10   am
    10     2     3    2
    11     2     4    1
    12     4     5   ar
    13     4     9   ar
    14     5     6   ar
    15     6     7   ar
    16     7     8   ar
    17     8     9   ar
    18     9    10    1
    19    10    11    2
    20    17    18    2
    21    17    19   am
    22    19    20    1
#	Name:			CHEMBL42710
#	Creating user name:	trannguyen
#	Creation time:		Tue Feb  8 18:26:14 2022


#	Modifying user name:	trannguyen
#	Modification time:	Tue Feb  8 18:26:14 2022

@<TRIPOS>MOLECULE
CHEMBL42710
 13 13 0 0 0
SMALL
GASTEIGER

@<TRIPOS>ATOM
      1 C           3.5073   29.1944   10.0514 C.ar    1  UNL1       -0.0146
      2 C           3.0159   28.1388   10.8275 C.ar    1  UNL1       -0.0006
      3 C           1.6416   27.9344   10.9550 C.ar    1  UNL1        0.0395
      4 C           0.7387   28.7804   10.3060 C.ar    1  UNL1        0.1677
      5 O          -0.5975   28.5433   10.4792 O.3     1  UNL1       -0.5029
      6 C           1.2022   29.8345    9.5098 C.ar    1  UNL1        0.1718
      7 C           2.5892   30.0254    9.3873 C.ar    1  UNL1        0.0361
      8 H          -0.7154   27.7682   11.0504 H       1  UNL1        0.2923
      9 O           0.4590   30.7472    8.8062 O.3     1  UNL1       -0.4684
     10 C           0.6922   32.1252    9.0692 C.3     1  UNL1        0.2526
     11 C           4.9956   29.4300    9.9346 C.3     1  UNL1        0.0524
     12 C           6.5152   31.4311    9.8432 C.2     1  UNL1       -0.0046
     13 C           5.3485   30.8438    9.5616 C.2     1  UNL1       -0.0214
@<TRIPOS>BOND
     1    12    13    2
     2    13    11    1
     3    11     1    1
     4     1     2   ar
     5     1     7   ar
     6     2     3   ar
     7     3     4   ar
     8     4     5    1
     9     4     6   ar
    10     5     8    1
    11     6     9    1
    12     6     7   ar
    13     9    10    1
#	Name:			CHEMBL427216
#	Creating user name:	trannguyen
#	Creation time:		Tue Feb  8 18:26:14 2022


#	Modifying user name:	trannguyen
#	Modification time:	Tue Feb  8 18:26:14 2022

@<TRIPOS>MOLECULE
CHEMBL427216
 24 26 0 0 0
SMALL
GASTEIGER

@<TRIPOS>ATOM
      1 N           5.0885   33.1650    7.7758 N.am    1  UNL1       -0.1683
      2 C           5.7947   32.7418    6.6636 C.2     1  UNL1        0.3328
      3 O           6.7698   31.9977    6.7053 O.2     1  UNL1       -0.2499
      4 N           5.3018   33.2232    5.4734 N.am    1  UNL1       -0.2296
      5 H           4.3594   33.8520    7.6063 H       1  UNL1        0.1782
      6 H           5.8951   33.0801    4.6619 H       1  UNL1        0.1709
      7 N           4.1434   34.0363    5.4269 N.3     1  UNL1       -0.2047
      8 C           3.5491   34.0858    4.0774 C.3     1  UNL1        0.0919
      9 C           2.2644   33.2457    4.0981 C.3     1  UNL1        0.0191
     10 C           2.2495   32.0702    3.1331 C.3     1  UNL1        0.0015
     11 C           3.0903   31.0103    3.8241 C.3     1  UNL1        0.0001
     12 C           2.7742   31.1763    5.3074 C.3     1  UNL1        0.0015
     13 C           2.2252   32.6020    5.4823 C.3     1  UNL1        0.0191
     14 C           3.0832   33.5300    6.3205 C.3     1  UNL1        0.0919
     15 S           5.4278   32.8000    9.3427 S.O2    1  UNL1        0.0768
     16 O           4.6842   33.7449   10.1490 O.2     1  UNL1       -0.1498
     17 O           6.8592   32.6596    9.4928 O.2     1  UNL1       -0.1498
     18 C           2.7755   27.4348   10.3460 C.3     1  UNL1        0.0310
     19 C           3.4315   28.7434   10.0135 C.ar    1  UNL1       -0.0218
     20 C           2.6733   29.8367    9.5719 C.ar    1  UNL1       -0.0029
     21 C           3.2806   31.0743    9.3434 C.ar    1  UNL1        0.0199
     22 C           4.6537   31.2153    9.5499 C.ar    1  UNL1        0.1253
     23 C           5.4312   30.1203    9.9397 C.ar    1  UNL1        0.0199
     24 C           4.8130   28.8955   10.1967 C.ar    1  UNL1       -0.0029
@<TRIPOS>BOND
     1    18    19    1
     2    19    20   ar
     3    19    24   ar
     4    20    21   ar
     5    21    22   ar
     6    22    15    1
     7    22    23   ar
     8    15    16    2
     9    15    17    2
    10    15     1    1
    11     1     2   am
    12     1     5    1
    13     2     3    2
    14     2     4   am
    15     4     7    1
    16     4     6    1
    17     7     8    1
    18     7    14    1
    19     8     9    1
    20     9    10    1
    21     9    13    1
    22    10    11    1
    23    11    12    1
    24    12    13    1
    25    13    14    1
    26    23    24   ar
#	Name:			CHEMBL427526
#	Creating user name:	trannguyen
#	Creation time:		Tue Feb  8 18:26:14 2022


#	Modifying user name:	trannguyen
#	Modification time:	Tue Feb  8 18:26:14 2022

@<TRIPOS>MOLECULE
CHEMBL427526
 16 16 0 0 0
SMALL
GASTEIGER

@<TRIPOS>ATOM
      1 C           3.1081   31.5391    7.4637 C.ar    1  UNL1       -0.0222
      2 C           1.7641   31.1743    7.3185 C.ar    1  UNL1       -0.0046
      3 C           1.1085   30.4314    8.3096 C.ar    1  UNL1       -0.0041
      4 C           1.7869   30.0168    9.4648 C.ar    1  UNL1       -0.0120
      5 C           3.1315   30.3873    9.6116 C.ar    1  UNL1       -0.0041
      6 C           3.7797   31.1455    8.6283 C.ar    1  UNL1       -0.0046
      7 C           1.1031   29.1807   10.5368 C.3     1  UNL1        0.1211
      8 C          -0.3164   28.7720   10.1345 C.3     1  UNL1        0.0164
      9 C           1.9194   27.9572   10.9431 C.2     1  UNL1        0.3174
     10 O           2.3633   27.7514   12.0678 O.2     1  UNL1       -0.2499
     11 O           2.1727   27.1093    9.9172 O.3     1  UNL1       -0.4800
     12 H           1.7295   27.3666    9.0855 H       1  UNL1        0.2951
     13 C           3.8414   32.2849    6.3664 C.3     1  UNL1        0.0263
     14 C           3.3058   33.6782    4.3050 C.3     1  UNL1        0.0003
     15 C           3.1287   32.3258    4.9976 C.3     1  UNL1        0.0044
     16 C           3.6603   31.2169    4.0820 C.3     1  UNL1        0.0003
@<TRIPOS>BOND
     1    14    15    1
     2    15    16    1
     3    15    13    1
     4    13     1    1
     5     1     2   ar
     6     1     6   ar
     7     2     3   ar
     8     3     4   ar
     9     4     7    1
    10     4     5   ar
    11     7     8    1
    12     7     9    1
    13     9    10    2
    14     9    11    1
    15    11    12    1
    16     5     6   ar
#	Name:			CHEMBL428647
#	Creating user name:	trannguyen
#	Creation time:		Tue Feb  8 18:26:14 2022


#	Modifying user name:	trannguyen
#	Modification time:	Tue Feb  8 18:26:14 2022

@<TRIPOS>MOLECULE
CHEMBL428647
 66 72 0 0 0
SMALL
GASTEIGER

@<TRIPOS>ATOM
      1 C           9.8927   39.3823    9.5603 C.3     1  UNL1        0.2433
      2 C          11.1918   39.4518    8.7121 C.2     1  UNL1        0.1960
      3 O          12.0920   40.2311    9.0649 O.2     1  UNL1       -0.2919
      4 C          11.3311   38.6381    7.3879 C.3     1  UNL1        0.0869
      5 C          10.0122   38.9077    6.6300 C.3     1  UNL1        0.0102
      6 C          12.4273   39.4612    6.5330 C.3     1  UNL1        0.1198
      7 O          13.6600   39.5706    7.2607 O.3     1  UNL1       -0.3840
      8 C          12.8110   38.8424    5.1802 C.3     1  UNL1        0.0629
      9 C          13.1704   37.4132    5.4644 C.3     1  UNL1        0.1567
     10 O          13.3318   36.5517    4.3104 O.3     1  UNL1       -0.3487
     11 C          12.9818   35.4454    5.2397 C.3     1  UNL1        0.1845
     12 C          12.0138   36.4927    6.0145 C.3     1  UNL1        0.1914
     13 C          11.8626   37.0616    7.5034 C.3     1  UNL1        0.0930
     14 C          11.5689   35.8822    8.5752 C.3     1  UNL1        0.1976
     15 C          10.6605   35.8111    9.9113 C.3     1  UNL1        0.1319
     16 O          11.2849   34.8439   10.8101 O.3     1  UNL1       -0.3828
     17 C           9.2870   35.1104    9.6132 C.3     1  UNL1        0.0787
     18 C           8.0657   35.9219   10.0277 C.3     1  UNL1        0.1893
     19 C           8.3308   37.3686    9.5893 C.2     1  UNL1       -0.0086
     20 C           7.1999   37.9899    8.8104 C.3     1  UNL1        0.0294
     21 C           9.5179   37.9659    9.9121 C.2     1  UNL1       -0.0005
     22 C          10.5360   37.1426   10.7311 C.3     1  UNL1        0.0444
     23 C          11.9580   37.7235   10.9898 C.3     1  UNL1        0.0066
     24 C           9.9641   36.9601   12.1860 C.3     1  UNL1        0.0066
     25 H          13.4697   40.1534    8.0306 H       1  UNL1        0.2104
     26 H          12.2360   35.0329   10.9157 H       1  UNL1        0.2104
     27 O          10.1298   40.0499   10.8118 O.3     1  UNL1       -0.4403
     28 C           8.8119   41.9546   10.5356 C.3     1  UNL1        0.1212
     29 C           9.0744   40.7188   11.3559 C.2     1  UNL1        0.3181
     30 O           8.4412   40.3628   12.3233 O.2     1  UNL1       -0.2501
     31 O          10.6993   36.6264    5.3898 O.3     1  UNL1       -0.4506
     32 C           9.9127   35.5202    5.3123 C.2     1  UNL1        0.3175
     33 C           8.6480   35.7028    6.0914 C.3     1  UNL1        0.1212
     34 O          10.1621   34.5075    4.6862 O.2     1  UNL1       -0.2501
     35 O          11.3608   34.6075    7.8773 O.3     1  UNL1       -0.4466
     36 C          12.0772   33.5555    8.3824 C.2     1  UNL1        0.3412
     37 O          13.2236   33.6155    8.7445 O.2     1  UNL1       -0.2449
     38 C          11.3456   32.2689    8.3535 C.ar    1  UNL1        0.0756
     39 C          11.7244   31.1441    9.0637 C.ar    1  UNL1        0.0064
     40 C          10.8849   30.0228    9.0402 C.ar    1  UNL1        0.0002
     41 C           9.7343   30.0012    8.2502 C.ar    1  UNL1        0.0000
     42 C           9.3932   31.1148    7.4966 C.ar    1  UNL1        0.0002
     43 C          10.1999   32.2538    7.5528 C.ar    1  UNL1        0.0064
     44 O           6.8010   35.4705    9.4721 O.3     1  UNL1       -0.4463
     45 C           5.9998   34.6251   10.2244 C.2     1  UNL1        0.3464
     46 O           6.3195   34.1064   11.2523 O.2     1  UNL1       -0.2473
     47 C           4.6136   34.5158    9.4653 C.3     1  UNL1        0.2320
     48 O           3.5165   34.5617   10.3769 O.3     1  UNL1       -0.3729
     49 H           3.7078   33.9113   11.0771 H       1  UNL1        0.2111
     50 C           4.5155   33.2985    8.5038 C.3     1  UNL1        0.1325
     51 C           4.4390   31.9254    9.1783 C.ar    1  UNL1       -0.0016
     52 C           3.1916   31.3145    9.4074 C.ar    1  UNL1       -0.0026
     53 C           3.1113   30.0166    9.9248 C.ar    1  UNL1       -0.0003
     54 C           4.2729   29.2978   10.1950 C.ar    1  UNL1       -0.0000
     55 C           5.5140   29.8944    9.9987 C.ar    1  UNL1       -0.0003
     56 C           5.5955   31.2057    9.5235 C.ar    1  UNL1       -0.0026
     57 N           5.4871   33.2487    7.4105 N.am    1  UNL1       -0.2961
     58 C           5.3227   33.1592    6.0481 C.2     1  UNL1        0.2461
     59 O           6.3038   33.2354    5.3501 O.2     1  UNL1       -0.2701
     60 H           6.4751   33.1737    7.6365 H       1  UNL1        0.1501
     61 C           3.9811   32.9424    5.4383 C.ar    1  UNL1        0.0534
     62 C           3.4408   31.6607    5.5685 C.ar    1  UNL1        0.0045
     63 C           2.1108   31.4385    5.2300 C.ar    1  UNL1        0.0001
     64 C           1.3763   32.4449    4.6114 C.ar    1  UNL1        0.0000
     65 C           1.9627   33.6678    4.3167 C.ar    1  UNL1        0.0001
     66 C           3.2149   33.9491    4.8375 C.ar    1  UNL1        0.0045
@<TRIPOS>BOND
     1    28    29    1
     2    29    30    2
     3    29    27    1
     4     1     2    1
     5     1    21    1
     6     1    27    1
     7     2     4    1
     8     2     3    2
     9     4     6    1
    10     4    13    1
    11     4     5    1
    12     6     8    1
    13     6     7    1
    14     7    25    1
    15     8     9    1
    16     9    10    1
    17     9    12    1
    18    10    11    1
    19    11    12    1
    20    12    13    1
    21    12    31    1
    22    31    32    1
    23    32    33    1
    24    32    34    2
    25    13    14    1
    26    14    15    1
    27    14    35    1
    28    35    36    1
    29    36    37    2
    30    36    38    1
    31    38    39   ar
    32    38    43   ar
    33    39    40   ar
    34    40    41   ar
    35    41    42   ar
    36    42    43   ar
    37    15    17    1
    38    15    22    1
    39    15    16    1
    40    16    26    1
    41    17    18    1
    42    18    19    1
    43    18    44    1
    44    44    45    1
    45    45    46    2
    46    47    48    1
    47    47    50    1
    48    47    45    1
    49    48    49    1
    50    50    57    1
    51    50    51    1
    52    57    58   am
    53    57    60    1
    54    58    59    2
    55    58    61    1
    56    61    62   ar
    57    61    66   ar
    58    62    63   ar
    59    63    64   ar
    60    64    65   ar
    61    65    66   ar
    62    51    52   ar
    63    51    56   ar
    64    52    53   ar
    65    53    54   ar
    66    54    55   ar
    67    55    56   ar
    68    19    21    2
    69    19    20    1
    70    21    22    1
    71    22    23    1
    72    22    24    1
#	Name:			CHEMBL428880
#	Creating user name:	trannguyen
#	Creation time:		Tue Feb  8 18:26:14 2022


#	Modifying user name:	trannguyen
#	Modification time:	Tue Feb  8 18:26:14 2022

@<TRIPOS>MOLECULE
CHEMBL428880
 37 40 0 0 0
SMALL
GASTEIGER

@<TRIPOS>ATOM
      1 C           7.1909   32.1285    9.3425 C.3     1  UNL1        0.1981
      2 O           8.1515   31.0774    9.1775 O.3     1  UNL1       -0.3776
      3 H           8.9676   31.4865    8.8214 H       1  UNL1        0.2106
      4 C           5.7998   31.5268    9.6208 C.3     1  UNL1        0.2382
      5 O           4.7876   32.5470    9.6349 O.3     1  UNL1       -0.4725
      6 C           0.3090   34.7142   10.4738 C.ar    1  UNL1        0.2234
      7 C           1.5318   35.1952   10.7237 C.ar    1  UNL1        0.0864
      8 C           2.6846   34.2753   10.6372 C.ar    1  UNL1        0.2048
      9 O           3.7339   34.5684   11.1919 O.2     1  UNL1       -0.2862
     10 C           2.4521   32.9922    9.9309 C.ar    1  UNL1        0.1074
     11 C           3.4852   32.1384    9.4977 C.ar    1  UNL1        0.1446
     12 C           3.1371   30.9329    8.8688 C.ar    1  UNL1        0.0372
     13 C           1.7998   30.5575    8.7157 C.ar    1  UNL1        0.0062
     14 C           0.7869   31.3983    9.1564 C.ar    1  UNL1        0.0378
     15 C           1.1142   32.6214    9.7378 C.ar    1  UNL1        0.1516
     16 O           0.0479   33.4109   10.0934 O.2     1  UNL1       -0.4466
     17 O          -0.9147   36.7722   10.2776 O.2     1  UNL1       -0.2416
     18 C          -0.8605   35.6177   10.6531 C.2     1  UNL1        0.3732
     19 O          -1.8764   34.9996   11.3034 O.3     1  UNL1       -0.4750
     20 H          -1.6673   34.0745   11.5337 H       1  UNL1        0.2955
     21 C           7.1643   33.0574    8.1218 C.3     1  UNL1        0.2382
     22 O           7.1185   32.2946    6.9046 O.3     1  UNL1       -0.4725
     23 C           6.1731   32.5575    5.9523 C.ar    1  UNL1        0.1446
     24 C           4.8153   32.7319    6.2450 C.ar    1  UNL1        0.0372
     25 C           3.8892   32.9931    5.2310 C.ar    1  UNL1        0.0062
     26 C           4.2972   33.0278    3.9027 C.ar    1  UNL1        0.0378
     27 C           5.6341   32.7926    3.5870 C.ar    1  UNL1        0.1516
     28 O           5.9380   32.7859    2.2467 O.2     1  UNL1       -0.4466
     29 C           7.2388   32.4965    1.8759 C.ar    1  UNL1        0.2234
     30 C           8.2424   32.2884    2.7328 C.ar    1  UNL1        0.0864
     31 C           7.9925   32.4336    4.1804 C.ar    1  UNL1        0.2048
     32 O           8.9400   32.4823    4.9512 O.2     1  UNL1       -0.2862
     33 C           6.5783   32.5805    4.6008 C.ar    1  UNL1        0.1074
     34 C           7.5440   32.4288    0.4183 C.2     1  UNL1        0.3732
     35 O           7.9111   31.4348   -0.1654 O.2     1  UNL1       -0.2416
     36 O           7.3603   33.6276   -0.1882 O.3     1  UNL1       -0.4750
     37 H           7.0461   34.3212    0.4207 H       1  UNL1        0.2955
@<TRIPOS>BOND
     1    17    18    2
     2    18    19    1
     3    18     6    1
     4    19    20    1
     5     6     7   ar
     6     6    16   ar
     7     7     8   ar
     8     8     9    2
     9     8    10   ar
    10    10    11   ar
    11    10    15   ar
    12    11     5    1
    13    11    12   ar
    14     5     4    1
    15     4     1    1
    16     1     2    1
    17     1    21    1
    18     2     3    1
    19    21    22    1
    20    22    23    1
    21    23    24   ar
    22    23    33   ar
    23    24    25   ar
    24    25    26   ar
    25    26    27   ar
    26    27    28   ar
    27    27    33   ar
    28    28    29   ar
    29    29    34    1
    30    29    30   ar
    31    34    35    2
    32    34    36    1
    33    36    37    1
    34    30    31   ar
    35    31    32    2
    36    31    33   ar
    37    12    13   ar
    38    13    14   ar
    39    14    15   ar
    40    15    16   ar
#	Name:			CHEMBL428
#	Creating user name:	trannguyen
#	Creation time:		Tue Feb  8 18:26:14 2022


#	Modifying user name:	trannguyen
#	Modification time:	Tue Feb  8 18:26:14 2022

@<TRIPOS>MOLECULE
CHEMBL428
 33 37 0 0 0
SMALL
GASTEIGER

@<TRIPOS>ATOM
      1 C           4.6308   33.1755    5.1374 C.ar    1  UNL1        0.1610
      2 N           5.1499   32.7686    6.3285 N.ar    1  UNL1       -0.2109
      3 C           4.4012   32.0897    7.2402 C.ar    1  UNL1        0.1524
      4 C           3.0680   31.7842    6.9362 C.ar    1  UNL1        0.0760
      5 C           2.5217   32.1520    5.7065 C.ar    1  UNL1        0.0387
      6 C           3.3135   32.8405    4.8052 C.ar    1  UNL1        0.1717
      7 F           2.7859   33.1739    3.6171 F       1  UNL1       -0.2012
      8 C           2.2206   31.0629    7.8980 C.ar    1  UNL1        0.2063
      9 O           1.0475   30.7946    7.6459 O.2     1  UNL1       -0.2862
     10 C           2.8024   30.6878    9.1919 C.ar    1  UNL1        0.1318
     11 C           4.0892   31.0067    9.3915 C.ar    1  UNL1        0.0911
     12 N           4.9617   31.6554    8.5101 N.ar    1  UNL1       -0.2877
     13 N           8.8351   32.1247    1.7087 N.3     1  UNL1       -0.3221
     14 C           7.8813   33.0479    2.3220 C.3     1  UNL1        0.0542
     15 C           6.4963   32.5567    2.6353 C.3     1  UNL1        0.0370
     16 C           5.3329   33.4883    2.8223 C.3     1  UNL1        0.0936
     17 N           5.4353   33.9056    4.2353 N.pl3   1  UNL1       -0.2913
     18 C           6.8711   33.9154    4.5977 C.3     1  UNL1        0.0936
     19 C           7.4636   32.8259    3.7482 C.3     1  UNL1        0.0370
     20 H           8.6834   31.1645    2.0169 H       1  UNL1        0.1188
     21 H           9.7908   32.3556    1.9808 H       1  UNL1        0.1188
     22 C           6.3530   31.8363    8.8804 C.ar    1  UNL1        0.0929
     23 C           7.3650   30.9935    8.3800 C.ar    1  UNL1        0.0221
     24 C           8.7081   31.1363    8.7543 C.ar    1  UNL1        0.0313
     25 C           9.0739   32.1453    9.6298 C.ar    1  UNL1        0.1425
     26 F          10.3569   32.2815    9.9865 F       1  UNL1       -0.2041
     27 C           8.1254   33.0178   10.1294 C.ar    1  UNL1        0.0608
     28 C           6.7889   32.8620    9.7559 C.ar    1  UNL1        0.1584
     29 F           5.9185   33.7300   10.2946 F       1  UNL1       -0.2026
     30 C           2.0448   30.0093   10.2679 C.2     1  UNL1        0.3427
     31 O           1.7163   28.8381   10.2195 O.2     1  UNL1       -0.2449
     32 O           1.7531   30.7964   11.3276 O.3     1  UNL1       -0.4770
     33 H           2.0691   31.7288   11.2477 H       1  UNL1        0.2954
@<TRIPOS>BOND
     1    13    20    1
     2    13    21    1
     3    14    15    1
     4    14    19    1
     5    14    13    1
     6    15    16    1
     7    15    19    1
     8    16    17    1
     9    17    18    1
    10    17     1    1
    11     1     2   ar
    12     1     6   ar
    13     2     3   ar
    14     3     4   ar
    15     3    12   ar
    16     4     5   ar
    17     4     8   ar
    18     5     6   ar
    19     6     7    1
    20     8     9    2
    21     8    10   ar
    22    10    30    1
    23    10    11   ar
    24    30    31    2
    25    30    32    1
    26    32    33    1
    27    11    12   ar
    28    12    22    1
    29    22    23   ar
    30    22    28   ar
    31    23    24   ar
    32    24    25   ar
    33    25    26    1
    34    25    27   ar
    35    27    28   ar
    36    28    29    1
    37    18    19    1
#	Name:			CHEMBL429023
#	Creating user name:	trannguyen
#	Creation time:		Tue Feb  8 18:26:14 2022


#	Modifying user name:	trannguyen
#	Modification time:	Tue Feb  8 18:26:14 2022

@<TRIPOS>MOLECULE
CHEMBL429023
 29 33 0 0 0
SMALL
GASTEIGER

@<TRIPOS>ATOM
      1 C           3.3847   33.3283    5.3690 C.3     1  UNL1        0.1888
      2 C           3.9430   33.1768    6.7983 C.3     1  UNL1        0.0803
      3 C           5.3274   32.7697    6.4593 C.ar    1  UNL1        0.0497
      4 C           5.5974   33.1552    5.1551 C.ar    1  UNL1        0.1379
      5 C           6.8296   32.9484    4.5667 C.ar    1  UNL1        0.0369
      6 C           7.8071   32.3060    5.3248 C.ar    1  UNL1        0.0090
      7 C           7.5289   31.8987    6.6458 C.ar    1  UNL1        0.0689
      8 C           6.2802   32.1328    7.2263 C.ar    1  UNL1        0.1403
      9 O           5.9372   31.7917    8.4949 O.3     1  UNL1       -0.4746
     10 C           6.8219   30.8676    9.1491 C.3     1  UNL1        0.2205
     11 C           6.5340   30.9498   10.6482 C.3     1  UNL1        0.2493
     12 O           6.7986   32.2469   11.2016 O.3     1  UNL1       -0.4717
     13 C           7.9410   32.8623   10.7669 C.ar    1  UNL1        0.1384
     14 C           8.3047   34.0275   11.4412 C.ar    1  UNL1        0.0766
     15 C           9.4468   34.7530   11.0722 C.ar    1  UNL1        0.1754
     16 C          10.2490   34.2860   10.0213 C.ar    1  UNL1        0.1723
     17 C           9.8886   33.0994    9.3682 C.ar    1  UNL1        0.0393
     18 C           8.7147   32.4044    9.7017 C.ar    1  UNL1        0.0256
     19 C           8.3052   31.1683    8.9426 C.3     1  UNL1        0.1309
     20 C           8.5629   31.2586    7.4622 C.2     1  UNL1        0.1834
     21 O           9.6248   30.8874    6.9468 O.2     1  UNL1       -0.2908
     22 O           4.5132   33.7105    4.5204 O.3     1  UNL1       -0.4750
     23 C           2.5664   31.7980    3.5082 C.2     1  UNL1       -0.0056
     24 C           2.6900   32.0718    4.8207 C.2     1  UNL1       -0.0044
     25 C           2.1029   31.1292    5.8385 C.3     1  UNL1        0.0300
     26 O           9.6830   35.8434   11.8697 O.3     1  UNL1       -0.4683
     27 C           8.8689   36.9895   11.6548 C.3     1  UNL1        0.2526
     28 O          11.4078   34.9486    9.7182 O.3     1  UNL1       -0.4684
     29 C          11.3135   35.9556    8.7142 C.3     1  UNL1        0.2526
@<TRIPOS>BOND
     1    23    24    2
     2    24    25    1
     3    24     1    1
     4     1     2    1
     5     1    22    1
     6     2     3    1
     7     3     4   ar
     8     3     8   ar
     9     4     5   ar
    10     4    22    1
    11     5     6   ar
    12     6     7   ar
    13     7     8   ar
    14     7    20    1
    15     8     9    1
    16     9    10    1
    17    10    11    1
    18    10    19    1
    19    11    12    1
    20    12    13    1
    21    13    14   ar
    22    13    18   ar
    23    14    15   ar
    24    15    26    1
    25    15    16   ar
    26    26    27    1
    27    16    28    1
    28    16    17   ar
    29    28    29    1
    30    17    18   ar
    31    18    19    1
    32    19    20    1
    33    20    21    2
#	Name:			CHEMBL429
#	Creating user name:	trannguyen
#	Creation time:		Tue Feb  8 18:26:14 2022


#	Modifying user name:	trannguyen
#	Modification time:	Tue Feb  8 18:26:14 2022

@<TRIPOS>MOLECULE
CHEMBL429
 29 30 0 0 0
SMALL
GASTEIGER

@<TRIPOS>ATOM
      1 C           3.2234   32.5776    9.0683 C.3     1  UNL1        0.1484
      2 O           2.6504   33.4289    8.0716 O.3     1  UNL1       -0.3786
      3 H           2.8796   33.0019    7.2238 H       1  UNL1        0.2108
      4 C           2.3340   31.3677    9.3135 C.ar    1  UNL1        0.0059
      5 C           0.9460   31.4346    9.1334 C.ar    1  UNL1        0.0012
      6 C           0.1251   30.3452    9.4261 C.ar    1  UNL1        0.0365
      7 C           0.6801   29.1690    9.9285 C.ar    1  UNL1        0.1379
      8 O          -0.1668   28.1344   10.2407 O.3     1  UNL1       -0.5054
      9 C           2.0654   29.0614   10.1223 C.ar    1  UNL1        0.0865
     10 C           2.8818   30.1634    9.7965 C.ar    1  UNL1        0.0056
     11 H          -1.0842   28.4341   10.1146 H       1  UNL1        0.2922
     12 C           2.7478   27.8563   10.6866 C.2     1  UNL1        0.2457
     13 N           3.9715   27.5246   10.1666 N.am    1  UNL1       -0.3252
     14 O           2.2422   27.1841   11.5646 O.2     1  UNL1       -0.2703
     15 H           4.3970   28.0908    9.4454 H       1  UNL1        0.1453
     16 H           4.4462   26.7072   10.5177 H       1  UNL1        0.1453
     17 C           4.6818   32.2450    8.6592 C.3     1  UNL1        0.1028
     18 N           5.5110   33.4447    8.3801 N.3     1  UNL1       -0.2962
     19 H           4.9164   34.1627    7.9603 H       1  UNL1        0.1233
     20 C           7.8241   32.5269    8.2041 C.3     1  UNL1        0.0171
     21 C           6.6272   33.1405    7.4568 C.3     1  UNL1        0.0544
     22 C           6.1900   32.1822    6.3162 C.3     1  UNL1        0.0204
     23 C           5.6417   32.8964    5.0712 C.3     1  UNL1        0.0277
     24 C           4.1325   32.8036    4.9522 C.ar    1  UNL1       -0.0221
     25 C           3.4708   31.5980    5.2280 C.ar    1  UNL1       -0.0043
     26 C           2.0788   31.5074    5.1303 C.ar    1  UNL1       -0.0003
     27 C           1.3306   32.6186    4.7485 C.ar    1  UNL1       -0.0000
     28 C           1.9748   33.8216    4.4668 C.ar    1  UNL1       -0.0003
     29 C           3.3671   33.9148    4.5686 C.ar    1  UNL1       -0.0043
@<TRIPOS>BOND
     1    20    21    1
     2    21    22    1
     3    21    18    1
     4    22    23    1
     5    23    24    1
     6    24    25   ar
     7    24    29   ar
     8    25    26   ar
     9    26    27   ar
    10    27    28   ar
    11    28    29   ar
    12    18    17    1
    13    18    19    1
    14    17     1    1
    15     1     2    1
    16     1     4    1
    17     2     3    1
    18     4     5   ar
    19     4    10   ar
    20     5     6   ar
    21     6     7   ar
    22     7     8    1
    23     7     9   ar
    24     8    11    1
    25     9    12    1
    26     9    10   ar
    27    12    13   am
    28    12    14    2
    29    13    15    1
    30    13    16    1
#	Name:			CHEMBL42
#	Creating user name:	trannguyen
#	Creation time:		Tue Feb  8 18:26:14 2022


#	Modifying user name:	trannguyen
#	Modification time:	Tue Feb  8 18:26:14 2022

@<TRIPOS>MOLECULE
CHEMBL42
 24 27 0 0 0
SMALL
GASTEIGER

@<TRIPOS>ATOM
      1 C           4.2673   32.1465    8.1229 C.2     1  UNL1        0.3251
      2 N           3.2557   31.3256    8.0980 N.2     1  UNL1       -0.0388
      3 C           2.9516   30.3493    9.0538 C.ar    1  UNL1        0.2072
      4 C           1.5865   30.0669    9.2106 C.ar    1  UNL1        0.0593
      5 C           1.1584   29.0198   10.0209 C.ar    1  UNL1        0.0615
      6 CL         -0.5234   28.7016   10.1969 Cl      1  UNL1       -0.0821
      7 C           2.0839   28.2190   10.6771 C.ar    1  UNL1        0.0129
      8 C           3.4460   28.4812   10.5270 C.ar    1  UNL1        0.0192
      9 C           3.8963   29.5492    9.7260 C.ar    1  UNL1        0.0920
     10 N           5.2866   29.8132    9.6884 N.pl3   1  UNL1       -0.3094
     11 C           5.7979   31.1145    9.8729 C.ar    1  UNL1        0.0556
     12 C           6.8464   31.2955   10.7951 C.ar    1  UNL1        0.0149
     13 C           7.3300   32.5690   11.1051 C.ar    1  UNL1        0.0013
     14 C           6.7706   33.6881   10.5005 C.ar    1  UNL1        0.0003
     15 C           5.7469   33.5264    9.5688 C.ar    1  UNL1        0.0086
     16 C           5.2686   32.2441    9.2377 C.ar    1  UNL1        0.0956
     17 H           5.8279   29.1056   10.1704 H       1  UNL1        0.1523
     18 C           4.0765   33.4458    3.3446 C.3     1  UNL1        0.0898
     19 N           3.8083   32.3060    4.2168 N.3     1  UNL1       -0.2645
     20 C           5.0263   31.8552    4.9279 C.3     1  UNL1        0.1237
     21 C           5.5067   32.7847    6.0680 C.3     1  UNL1        0.2197
     22 N           4.4198   33.0357    7.0423 N.pl3   1  UNL1       -0.1877
     23 C           3.2056   33.5480    6.3677 C.3     1  UNL1        0.2197
     24 C           2.7580   32.6143    5.2187 C.3     1  UNL1        0.1237
@<TRIPOS>BOND
     1    18    19    1
     2    19    20    1
     3    19    24    1
     4    20    21    1
     5    21    22    1
     6    22     1    1
     7    22    23    1
     8     1     2    2
     9     1    16    1
    10     2     3    1
    11     3     4   ar
    12     3     9   ar
    13     4     5   ar
    14     5     6    1
    15     5     7   ar
    16     7     8   ar
    17     8     9   ar
    18     9    10    1
    19    10    11    1
    20    10    17    1
    21    11    12   ar
    22    11    16   ar
    23    12    13   ar
    24    13    14   ar
    25    14    15   ar
    26    15    16   ar
    27    23    24    1
#	Name:			CHEMBL43064
#	Creating user name:	trannguyen
#	Creation time:		Tue Feb  8 18:26:14 2022


#	Modifying user name:	trannguyen
#	Modification time:	Tue Feb  8 18:26:14 2022

@<TRIPOS>MOLECULE
CHEMBL43064
 28 31 0 0 0
SMALL
GASTEIGER

@<TRIPOS>ATOM
      1 N           7.9289   31.6517    8.1310 N.3     1  UNL1       -0.2665
      2 C           6.4545   31.7268    8.1242 C.3     1  UNL1        0.0899
      3 C           5.8502   32.9322    7.3587 C.3     1  UNL1        0.0901
      4 N           6.3336   33.1425    5.9714 N.3     1  UNL1       -0.2644
      5 C           7.8139   33.0327    5.9865 C.3     1  UNL1        0.0901
      6 C           8.4099   31.8197    6.7456 C.3     1  UNL1        0.0899
      7 C           8.5557   32.6166    9.0533 C.3     1  UNL1        0.0989
      8 C          10.0378   32.3587    9.1990 C.2     1  UNL1       -0.0088
      9 C          10.5941   31.1959    9.5257 C.2     1  UNL1       -0.0032
     10 C          12.0567   30.9493    9.5405 C.ar    1  UNL1       -0.0003
     11 C          12.7598   31.0253    8.3319 C.ar    1  UNL1       -0.0000
     12 C          14.1421   30.8288    8.3096 C.ar    1  UNL1       -0.0000
     13 C          14.8315   30.5449    9.4863 C.ar    1  UNL1       -0.0000
     14 C          14.1322   30.4442   10.6877 C.ar    1  UNL1       -0.0000
     15 C          12.7503   30.6359   10.7118 C.ar    1  UNL1       -0.0000
     16 C           5.6612   32.2584    4.9667 C.3     1  UNL1        0.1031
     17 C           4.1335   32.5049    4.8786 C.ar    1  UNL1       -0.0036
     18 C           3.1888   31.4705    5.0267 C.ar    1  UNL1       -0.0026
     19 C           1.8179   31.7023    4.8711 C.ar    1  UNL1       -0.0003
     20 C           1.3579   32.9783    4.5691 C.ar    1  UNL1       -0.0000
     21 C           2.2674   34.0266    4.4527 C.ar    1  UNL1       -0.0003
     22 C           3.6410   33.7944    4.6065 C.ar    1  UNL1       -0.0026
     23 C           6.3064   32.3478    3.5676 C.ar    1  UNL1       -0.0036
     24 C           6.3451   33.5545    2.8439 C.ar    1  UNL1       -0.0026
     25 C           6.9641   33.6361    1.5957 C.ar    1  UNL1       -0.0003
     26 C           7.5850   32.5161    1.0558 C.ar    1  UNL1       -0.0000
     27 C           7.5672   31.3108    1.7551 C.ar    1  UNL1       -0.0003
     28 C           6.9265   31.2225    2.9966 C.ar    1  UNL1       -0.0026
@<TRIPOS>BOND
     1     8     9    2
     2     8     7    1
     3     9    10    1
     4    10    11   ar
     5    10    15   ar
     6    11    12   ar
     7    12    13   ar
     8    13    14   ar
     9    14    15   ar
    10     7     1    1
    11     1     2    1
    12     1     6    1
    13     2     3    1
    14     3     4    1
    15     4    16    1
    16     4     5    1
    17    16    17    1
    18    16    23    1
    19    17    18   ar
    20    17    22   ar
    21    18    19   ar
    22    19    20   ar
    23    20    21   ar
    24    21    22   ar
    25    23    24   ar
    26    23    28   ar
    27    24    25   ar
    28    25    26   ar
    29    26    27   ar
    30    27    28   ar
    31     5     6    1
#	Name:			CHEMBL433257
#	Creating user name:	trannguyen
#	Creation time:		Tue Feb  8 18:26:14 2022


#	Modifying user name:	trannguyen
#	Modification time:	Tue Feb  8 18:26:14 2022

@<TRIPOS>MOLECULE
CHEMBL433257
 40 44 0 0 0
SMALL
GASTEIGER

@<TRIPOS>ATOM
      1 C           6.4135   32.0502    7.8247 C.3     1  UNL1        0.2296
      2 C           7.0255   32.4058    9.1525 C.2     1  UNL1        0.1535
      3 C           8.3612   32.3348    9.1599 C.2     1  UNL1        0.0244
      4 C           8.9119   31.8729    7.8349 C.3     1  UNL1        0.0743
      5 C           9.5696   30.4848    7.9953 C.3     1  UNL1        0.0208
      6 C          10.9604   30.7720    8.5444 C.3     1  UNL1        0.0190
      7 C          11.2443   32.2101    8.1334 C.3     1  UNL1        0.0724
      8 N          10.0759   32.6101    7.3470 N.3     1  UNL1       -0.2709
      9 C           9.9523   34.0518    7.1985 C.3     1  UNL1        0.0770
     10 C           8.8003   34.5488    6.3133 C.3     1  UNL1        0.0435
     11 C           8.3337   33.6179    5.2179 C.ar    1  UNL1       -0.0214
     12 C           8.5068   34.0113    3.8722 C.ar    1  UNL1        0.0357
     13 C           8.0341   33.1878    2.8728 C.ar    1  UNL1        0.1761
     14 C           7.3737   32.0231    3.1594 C.ar    1  UNL1        0.1761
     15 C           7.1760   31.6060    4.4571 C.ar    1  UNL1        0.0358
     16 C           7.6974   32.3829    5.5173 C.ar    1  UNL1       -0.0177
     17 C           7.6412   31.7747    6.9118 C.3     1  UNL1        0.0870
     18 O           6.9725   31.3600    2.0423 O.3     1  UNL1       -0.4346
     19 C           7.5368   32.2010    1.0157 C.3     1  UNL1        0.4294
     20 O           8.1423   33.4047    1.5340 O.3     1  UNL1       -0.4346
     21 O           6.1660   32.7056   10.1709 O.2     1  UNL1       -0.4724
     22 C           6.5048   33.8190   10.9879 C.3     1  UNL1        0.2521
     23 O           5.5353   33.1206    7.4498 O.3     1  UNL1       -0.4425
     24 C           4.3377   32.6865    6.9543 C.2     1  UNL1        0.3421
     25 O           4.1372   32.3732    5.7815 O.2     1  UNL1       -0.2475
     26 C           3.2185   32.5869    8.0249 C.3     1  UNL1        0.1878
     27 O           1.9477   32.4054    7.3726 O.3     1  UNL1       -0.3760
     28 H           2.0786   32.6846    6.4399 H       1  UNL1        0.2110
     29 C           3.1695   33.8437    8.8947 C.3     1  UNL1        0.1472
     30 C           2.2599   33.6676   10.0722 C.2     1  UNL1        0.3201
     31 O           1.0554   33.3880   10.0168 O.2     1  UNL1       -0.2500
     32 C           3.2462   35.3015   11.3745 C.3     1  UNL1        0.2556
     33 O           2.9516   33.9189   11.2061 O.3     1  UNL1       -0.4443
     34 C           3.4123   31.3136    8.8813 C.3     1  UNL1        0.0408
     35 C           2.2057   30.3414    8.8321 C.3     1  UNL1        0.0299
     36 C           1.8925   29.6220   10.1593 C.3     1  UNL1        0.0886
     37 C           0.5477   28.8971   10.0944 C.3     1  UNL1        0.0293
     38 C           2.9947   28.6093   10.5047 C.3     1  UNL1        0.0293
     39 O           1.8226   30.5782   11.2156 O.3     1  UNL1       -0.3867
     40 H           2.6987   30.9945   11.2971 H       1  UNL1        0.2102
@<TRIPOS>BOND
     1    32    33    1
     2    33    30    1
     3    30    31    2
     4    30    29    1
     5    26    34    1
     6    26    24    1
     7    26    27    1
     8    26    29    1
     9    27    28    1
    10    34    35    1
    11    35    36    1
    12    36    37    1
    13    36    38    1
    14    36    39    1
    15    39    40    1
    16    24    25    2
    17    24    23    1
    18     1     2    1
    19     1    17    1
    20     1    23    1
    21     2    21    1
    22     2     3    2
    23    21    22    1
    24     4     3    1
    25     4     5    1
    26     4     8    1
    27     4    17    1
    28     5     6    1
    29     6     7    1
    30     7     8    1
    31     8     9    1
    32     9    10    1
    33    10    11    1
    34    11    12   ar
    35    11    16   ar
    36    12    13   ar
    37    13    14   ar
    38    13    20    1
    39    14    15   ar
    40    14    18    1
    41    15    16   ar
    42    16    17    1
    43    18    19    1
    44    19    20    1
#	Name:			CHEMBL434063
#	Creating user name:	trannguyen
#	Creation time:		Tue Feb  8 18:26:14 2022


#	Modifying user name:	trannguyen
#	Modification time:	Tue Feb  8 18:26:14 2022

@<TRIPOS>MOLECULE
CHEMBL434063
 39 42 0 0 0
SMALL
GASTEIGER

@<TRIPOS>ATOM
      1 CA          5.9972   33.0237    8.5392 C.3     1  UNL1        0.1737
      2 C           5.8736   33.3636   10.0470 C.2     1  UNL1        0.3321
      3 O           6.7929   33.3707   10.8317 O.2     1  UNL1       -0.2485
      4 OXT         4.5864   33.6027   10.4208 O.3     1  UNL1       -0.4790
      5 HXT         3.9957   33.5060    9.6449 H       1  UNL1        0.2951
      6 N           4.8034   33.5469    7.7782 N.pl3   1  UNL1       -0.3251
      7 H           4.9903   34.4880    7.3827 H       1  UNL1        0.1473
      8 C           4.2078   32.7551    6.7610 C.ar    1  UNL1        0.0480
      9 C           4.7547   32.6801    5.4644 C.ar    1  UNL1        0.0144
     10 C           4.1635   31.9061    4.4523 C.ar    1  UNL1        0.0013
     11 C           3.0165   31.1686    4.7136 C.ar    1  UNL1        0.0002
     12 C           2.4833   31.1710    6.0004 C.ar    1  UNL1        0.0044
     13 C           3.1070   31.8938    7.0403 C.ar    1  UNL1        0.0520
     14 C           2.5626   31.7601    8.4333 C.2     1  UNL1        0.1967
     15 O           2.0780   32.7512    8.9773 O.2     1  UNL1       -0.2865
     16 C           2.6323   30.4730    9.1972 C.ar    1  UNL1        0.0390
     17 C           3.8753   29.9684    9.6115 C.ar    1  UNL1        0.0032
     18 C           3.9463   28.7762   10.3453 C.ar    1  UNL1        0.0001
     19 C           2.7828   28.0712   10.6507 C.ar    1  UNL1        0.0000
     20 C           1.5503   28.5450   10.2081 C.ar    1  UNL1        0.0001
     21 C           1.4760   29.7330    9.4761 C.ar    1  UNL1        0.0032
     22 C           7.3941   33.4516    8.0252 C.3     1  UNL1        0.0573
     23 C          10.7424   30.8363    8.8592 C.ar    1  UNL1        0.1386
     24 C           9.7170   30.4185    8.0081 C.ar    1  UNL1        0.0366
     25 C           8.6293   31.2582    7.7389 C.ar    1  UNL1       -0.0011
     26 C           8.5671   32.5403    8.2937 C.ar    1  UNL1       -0.0198
     27 C           9.5978   32.9506    9.1464 C.ar    1  UNL1       -0.0011
     28 C          10.6755   32.1070    9.4238 C.ar    1  UNL1        0.0366
     29 O          11.7820   29.9647    9.0228 O.3     1  UNL1       -0.4736
     30 C          13.0830   30.3958    8.5990 C.3     1  UNL1        0.2267
     31 C          14.1876   29.6341    9.3417 C.3     1  UNL1        0.1396
     32 C          16.5480   30.3261    9.2894 C.3     1  UNL1        0.1137
     33 N          15.2221   30.5601    9.8625 N.pl3   1  UNL1       -0.2879
     34 C          15.2479   30.5199   11.2734 C.ar    1  UNL1        0.1318
     35 C          14.1498   29.9763   11.9420 C.ar    1  UNL1        0.0343
     36 C          14.1882   29.8298   13.3265 C.ar    1  UNL1        0.0045
     37 C          15.3189   30.2399   14.0163 C.ar    1  UNL1        0.0208
     38 C          16.3529   30.7998   13.2879 C.ar    1  UNL1        0.1003
     39 N          16.3400   30.9454   11.9442 N.ar    1  UNL1       -0.2292
@<TRIPOS>BOND
     1    32    33    1
     2    33    31    1
     3    33    34    1
     4    31    30    1
     5    30    29    1
     6    29    23    1
     7    23    24   ar
     8    23    28   ar
     9    24    25   ar
    10    25    26   ar
    11    26    22    1
    12    26    27   ar
    13     1     6    1
    14     1     2    1
    15     1    22    1
    16     6     8    1
    17     6     7    1
    18     8     9   ar
    19     8    13   ar
    20     9    10   ar
    21    10    11   ar
    22    11    12   ar
    23    12    13   ar
    24    13    14    1
    25    14    15    2
    26    14    16    1
    27    16    17   ar
    28    16    21   ar
    29    17    18   ar
    30    18    19   ar
    31    19    20   ar
    32    20    21   ar
    33     2     3    2
    34     2     4    1
    35     4     5    1
    36    27    28   ar
    37    34    35   ar
    38    34    39   ar
    39    35    36   ar
    40    36    37   ar
    41    37    38   ar
    42    38    39   ar
#	Name:			CHEMBL434
#	Creating user name:	trannguyen
#	Creation time:		Tue Feb  8 18:26:14 2022


#	Modifying user name:	trannguyen
#	Modification time:	Tue Feb  8 18:26:14 2022

@<TRIPOS>MOLECULE
CHEMBL434
 19 19 0 0 0
SMALL
GASTEIGER

@<TRIPOS>ATOM
      1 C           1.9048   30.4421    9.1472 C.ar    1  UNL1        0.0088
      2 C           3.1647   29.9811    9.5673 C.ar    1  UNL1        0.0014
      3 C           3.2883   28.8528   10.3861 C.ar    1  UNL1        0.0395
      4 C           2.1373   28.1812   10.7792 C.ar    1  UNL1        0.1675
      5 O           2.1909   27.0734   11.5821 O.3     1  UNL1       -0.5029
      6 C           0.8879   28.6226   10.3653 C.ar    1  UNL1        0.1672
      7 O          -0.2378   27.9550   10.7584 O.3     1  UNL1       -0.5029
      8 C           0.7556   29.7452    9.5557 C.ar    1  UNL1        0.0379
      9 H           3.1250   26.8821   11.7666 H       1  UNL1        0.2923
     10 H           0.1000   27.2110   11.2968 H       1  UNL1        0.2923
     11 C           1.7607   31.6983    8.3114 C.3     1  UNL1        0.1485
     12 O           0.3830   32.0780    8.2220 O.3     1  UNL1       -0.3786
     13 H           0.1432   31.9938    7.2802 H       1  UNL1        0.2108
     14 C           2.3847   31.5621    6.8930 C.3     1  UNL1        0.1028
     15 N           1.3734   31.3128    5.8428 N.3     1  UNL1       -0.2962
     16 H           1.2435   30.2993    5.7739 H       1  UNL1        0.1233
     17 C           1.9848   33.3253    4.6040 C.3     1  UNL1        0.0171
     18 C           1.7837   31.8085    4.5180 C.3     1  UNL1        0.0541
     19 C           3.0765   31.1510    4.0346 C.3     1  UNL1        0.0171
@<TRIPOS>BOND
     1    17    18    1
     2    18    19    1
     3    18    15    1
     4    15    14    1
     5    15    16    1
     6    14    11    1
     7    11    12    1
     8    11     1    1
     9    12    13    1
    10     1     2   ar
    11     1     8   ar
    12     2     3   ar
    13     3     4   ar
    14     4     5    1
    15     4     6   ar
    16     5     9    1
    17     6     7    1
    18     6     8   ar
    19     7    10    1
#	Name:			CHEMBL435224
#	Creating user name:	trannguyen
#	Creation time:		Tue Feb  8 18:26:14 2022


#	Modifying user name:	trannguyen
#	Modification time:	Tue Feb  8 18:26:14 2022

@<TRIPOS>MOLECULE
CHEMBL435224
 46 49 0 0 0
SMALL
GASTEIGER

@<TRIPOS>ATOM
      1 C           8.2899   34.7232    7.1136 C.3     1  UNL1        0.1645
      2 O           7.9964   33.9977    5.9377 O.3     1  UNL1       -0.3400
      3 C           8.4459   32.6653    5.8316 C.3     1  UNL1        0.2011
      4 C           9.5433   32.0409    6.7569 C.2     1  UNL1        0.2570
      5 O          10.5027   31.4685    6.2235 O.2     1  UNL1       -0.2719
      6 N           9.3363   31.9648    8.1493 N.am    1  UNL1       -0.2568
      7 C           8.3480   32.7835    8.8282 C.ar    1  UNL1        0.0525
      8 C           7.9163   32.4061   10.0967 C.ar    1  UNL1        0.0155
      9 C           6.7868   32.9356   10.7213 C.ar    1  UNL1        0.0127
     10 C           6.0772   33.9379   10.0968 C.ar    1  UNL1        0.0575
     11 CL          4.5817   34.4637   10.7537 Cl      1  UNL1       -0.0823
     12 C           6.5675   34.4799    8.9190 C.ar    1  UNL1        0.0110
     13 C           7.7220   33.9349    8.2921 C.ar    1  UNL1        0.0234
     14 C          12.0874   35.5818    6.9869 C.ar    1  UNL1        0.1722
     15 C          12.2808   35.9078    8.3274 C.ar    1  UNL1        0.0400
     16 C          11.1958   36.0843    9.1689 C.ar    1  UNL1        0.0031
     17 C           9.9233   35.7537    8.7240 C.ar    1  UNL1        0.0016
     18 C           9.6903   35.2893    7.4092 C.ar    1  UNL1        0.0458
     19 C          10.7591   35.4179    6.5072 C.ar    1  UNL1        0.1709
     20 C          14.3769   34.9620    6.6271 C.3     1  UNL1        0.2526
     21 O          13.1350   35.4421    6.1024 O.3     1  UNL1       -0.4684
     22 O          10.4714   35.4704    5.1639 O.3     1  UNL1       -0.4686
     23 C          10.0960   36.8032    4.7678 C.3     1  UNL1        0.2526
     24 C           7.2662   31.6597    5.7592 C.3     1  UNL1        0.1242
     25 C           6.3581   31.8210    4.5414 C.2     1  UNL1        0.2286
     26 O           6.6800   31.3858    3.4254 O.2     1  UNL1       -0.2748
     27 N           5.1093   32.4328    4.7489 N.am    1  UNL1       -0.2795
     28 C           4.6902   32.8852    6.0761 C.3     1  UNL1        0.0934
     29 C           3.3261   33.5595    6.1468 C.3     1  UNL1        0.0221
     30 C           2.2673   32.7933    5.3529 C.3     1  UNL1        0.0145
     31 C           2.7228   32.8227    3.8925 C.3     1  UNL1        0.0221
     32 C           4.1276   32.2646    3.6679 C.3     1  UNL1        0.0934
     33 C           2.0421   31.3788    5.9187 C.3     1  UNL1        0.1095
     34 C           1.7689   31.3328    7.3779 C.2     1  UNL1        0.3138
     35 O           2.4656   30.7444    8.2482 O.2     1  UNL1       -0.2503
     36 O           0.6306   31.9528    7.7376 O.3     1  UNL1       -0.4802
     37 H           0.5717   31.8352    8.7099 H       1  UNL1        0.2951
     38 C          10.2883   31.0750    8.9387 C.3     1  UNL1        0.1017
     39 C          11.5589   31.6768    9.7145 C.3     1  UNL1        0.0591
     40 C          12.4886   32.4327    8.7414 C.3     1  UNL1        0.0054
     41 C          11.0820   32.7645   10.7228 C.3     1  UNL1        0.0054
     42 C          12.4025   30.6424   10.5278 C.3     1  UNL1        0.2099
     43 O          13.5958   30.1833    9.8258 O.3     1  UNL1       -0.4484
     44 C          14.6483   29.5447   10.3985 C.2     1  UNL1        0.3176
     45 C          15.8156   29.5238    9.4317 C.3     1  UNL1        0.1212
     46 O          14.6493   29.0010   11.4906 O.2     1  UNL1       -0.2501
@<TRIPOS>BOND
     1    20    21    1
     2    21    14    1
     3    14    15   ar
     4    14    19   ar
     5    15    16   ar
     6    16    17   ar
     7    17    18   ar
     8    18    19   ar
     9     1     2    1
    10     1    13    1
    11     1    18    1
    12     2     3    1
    13     3     4    1
    14     3    24    1
    15    24    25    1
    16    25    26    2
    17    25    27   am
    18    27    28    1
    19    27    32    1
    20    28    29    1
    21    29    30    1
    22    30    33    1
    23    30    31    1
    24    33    34    1
    25    34    35    2
    26    34    36    1
    27    36    37    1
    28    31    32    1
    29     4     5    2
    30     4     6   am
    31     6    38    1
    32     6     7    1
    33    38    39    1
    34    39    40    1
    35    39    41    1
    36    39    42    1
    37    42    43    1
    38    43    44    1
    39    44    45    1
    40    44    46    2
    41     7     8   ar
    42     7    13   ar
    43     8     9   ar
    44     9    10   ar
    45    10    11    1
    46    10    12   ar
    47    12    13   ar
    48    19    22    1
    49    22    23    1
#	Name:			CHEMBL435
#	Creating user name:	trannguyen
#	Creation time:		Tue Feb  8 18:26:14 2022


#	Modifying user name:	trannguyen
#	Modification time:	Tue Feb  8 18:26:14 2022

@<TRIPOS>MOLECULE
CHEMBL435
 21 22 0 0 0
SMALL
GASTEIGER

@<TRIPOS>ATOM
      1 C           2.7434   29.0115   10.2660 C.ar    1  UNL1        0.1336
      2 C           1.9302   29.9955    9.6919 C.ar    1  UNL1        0.0419
      3 C           2.5231   31.0553    8.9971 C.ar    1  UNL1        0.1364
      4 C           3.9056   31.1712    8.8464 C.ar    1  UNL1        0.0654
      5 C           4.6979   30.1934    9.4651 C.ar    1  UNL1        0.0284
      6 C           4.1315   29.1102   10.1598 C.ar    1  UNL1        0.0775
      7 CL          5.2366   27.9661   10.8337 Cl      1  UNL1       -0.0808
      8 N           4.5273   32.2728    8.2595 N.pl3   1  UNL1       -0.3172
      9 C           3.7629   33.1564    7.4127 C.3     1  UNL1        0.1822
     10 N           2.5637   33.5745    8.1001 N.3     1  UNL1       -0.1598
     11 S           1.4978   32.2983    8.3020 S.O2    1  UNL1        0.0628
     12 O           0.5227   32.7096    9.2854 O.2     1  UNL1       -0.1529
     13 O           1.1064   31.8579    6.9810 O.2     1  UNL1       -0.1529
     14 H           5.4603   32.0825    7.9045 H       1  UNL1        0.1481
     15 H           2.0854   34.3466    7.6418 H       1  UNL1        0.1506
     16 N           0.3351   27.9459   10.8506 N.3     1  UNL1       -0.2034
     17 S           1.9683   27.6897   11.1403 S.O2    1  UNL1        0.0580
     18 O           2.1244   27.9166   12.5593 O.2     1  UNL1       -0.1532
     19 O           2.3226   26.4333   10.5272 O.2     1  UNL1       -0.1532
     20 H          -0.1512   28.1046   11.7342 H       1  UNL1        0.1442
     21 H          -0.0449   27.1696   10.3060 H       1  UNL1        0.1442
@<TRIPOS>BOND
     1    16    17    1
     2    16    20    1
     3    16    21    1
     4    17    18    2
     5    17    19    2
     6    17     1    1
     7     1     2   ar
     8     1     6   ar
     9     2     3   ar
    10     3     4   ar
    11     3    11    1
    12     4     5   ar
    13     4     8    1
    14     5     6   ar
    15     6     7    1
    16     8     9    1
    17     8    14    1
    18     9    10    1
    19    10    11    1
    20    10    15    1
    21    11    12    2
    22    11    13    2
#	Name:			CHEMBL437002
#	Creating user name:	trannguyen
#	Creation time:		Tue Feb  8 18:26:14 2022


#	Modifying user name:	trannguyen
#	Modification time:	Tue Feb  8 18:26:14 2022

@<TRIPOS>MOLECULE
CHEMBL437002
 22 24 0 0 0
SMALL
GASTEIGER

@<TRIPOS>ATOM
      1 O           9.3335   34.8687    8.1541 O.2     1  UNL1       -0.2698
      2 C           8.6811   34.7551    9.2001 C.2     1  UNL1        0.2512
      3 N           7.8677   33.6373    9.4310 N.am    1  UNL1       -0.2760
      4 C           7.8170   32.6200    8.3755 C.3     1  UNL1        0.0937
      5 C           7.6724   31.2099    8.9513 C.3     1  UNL1        0.0219
      6 C           6.5172   31.0895    9.9650 C.3     1  UNL1        0.0078
      7 C           6.6972   32.1869   11.0291 C.3     1  UNL1        0.0219
      8 C           6.7603   33.5742   10.3893 C.3     1  UNL1        0.0937
      9 C           8.8439   35.8239   10.2194 C.ar    1  UNL1        0.0810
     10 C           9.7235   35.6941   11.3045 C.ar    1  UNL1        0.0068
     11 C           9.8556   36.7245   12.2415 C.ar    1  UNL1        0.0003
     12 C           9.1767   37.9275   12.0588 C.ar    1  UNL1        0.0023
     13 C           8.3578   38.0952   10.9446 C.ar    1  UNL1        0.0298
     14 C           8.1860   37.0459   10.0410 C.ar    1  UNL1        0.1445
     15 F           7.3624   37.2519    9.0026 F       1  UNL1       -0.2040
     16 C           5.1249   31.1657    9.2929 C.3     1  UNL1        0.0265
     17 C           4.2220   29.9936    9.6200 C.ar    1  UNL1       -0.0222
     18 C           4.7679   28.7262    9.8744 C.ar    1  UNL1       -0.0043
     19 C           3.9418   27.6473   10.1971 C.ar    1  UNL1       -0.0003
     20 C           2.5612   27.8203   10.2612 C.ar    1  UNL1       -0.0000
     21 C           2.0056   29.0705    9.9978 C.ar    1  UNL1       -0.0003
     22 C           2.8307   30.1523    9.6830 C.ar    1  UNL1       -0.0043
@<TRIPOS>BOND
     1     1     2    2
     2     2     9    1
     3     2     3   am
     4     9    10   ar
     5     9    14   ar
     6    10    11   ar
     7    11    12   ar
     8    12    13   ar
     9    13    14   ar
    10    14    15    1
    11     3     4    1
    12     3     8    1
    13     4     5    1
    14     5     6    1
    15     6    16    1
    16     6     7    1
    17    16    17    1
    18    17    18   ar
    19    17    22   ar
    20    18    19   ar
    21    19    20   ar
    22    20    21   ar
    23    21    22   ar
    24     7     8    1
#	Name:			CHEMBL437
#	Creating user name:	trannguyen
#	Creation time:		Tue Feb  8 18:26:14 2022


#	Modifying user name:	trannguyen
#	Modification time:	Tue Feb  8 18:26:14 2022

@<TRIPOS>MOLECULE
CHEMBL437
 19 20 0 0 0
SMALL
GASTEIGER

@<TRIPOS>ATOM
      1 S           1.4937   31.6325    8.0415 S.O2    1  UNL1        0.0751
      2 O           0.1422   32.1222    8.1964 O.2     1  UNL1       -0.1499
      3 O           2.6420   32.4998    8.2106 O.2     1  UNL1       -0.1499
      4 N           2.1759   27.0805   11.8434 N.pl3   1  UNL1       -0.3570
      5 C           2.0069   28.2137   11.0399 C.ar    1  UNL1        0.0416
      6 C           3.1230   28.8923   10.5388 C.ar    1  UNL1        0.0155
      7 C           2.9739   29.9385    9.6241 C.ar    1  UNL1        0.0214
      8 C           1.6976   30.2749    9.1698 C.ar    1  UNL1        0.1253
      9 C           0.5751   29.5864    9.6341 C.ar    1  UNL1        0.0214
     10 C           0.7401   28.5393   10.5442 C.ar    1  UNL1        0.0155
     11 H           3.0232   27.0956   12.4028 H       1  UNL1        0.1424
     12 H           1.3582   26.8407   12.3956 H       1  UNL1        0.1424
     13 N           1.5479   30.8271    6.5442 N.pl3   1  UNL1       -0.1937
     14 H           0.5646   30.6521    6.3252 H       1  UNL1        0.1758
     15 C           1.9822   31.7309    5.5435 C.ar    1  UNL1        0.1786
     16 N           1.1118   32.5605    5.0274 N.ar    1  UNL1       -0.2214
     17 C           1.7653   33.3850    4.1314 C.ar    1  UNL1        0.1079
     18 C           3.0918   33.0823    3.9012 C.ar    1  UNL1        0.0588
     19 S           3.5499   31.7399    4.8698 S.2     1  UNL1       -0.0497
@<TRIPOS>BOND
     1     4     5    1
     2     4    11    1
     3     4    12    1
     4     5     6   ar
     5     5    10   ar
     6     6     7   ar
     7     7     8   ar
     8     8     1    1
     9     8     9   ar
    10     1     2    2
    11     1     3    2
    12     1    13    1
    13    13    15    1
    14    13    14    1
    15    15    16   ar
    16    15    19   ar
    17    16    17   ar
    18    17    18   ar
    19    18    19   ar
    20     9    10   ar
#	Name:			CHEMBL43882
#	Creating user name:	trannguyen
#	Creation time:		Tue Feb  8 18:26:14 2022


#	Modifying user name:	trannguyen
#	Modification time:	Tue Feb  8 18:26:14 2022

@<TRIPOS>MOLECULE
CHEMBL43882
 5 4 0 0 0
SMALL
GASTEIGER

@<TRIPOS>ATOM
      1 C           1.6665   28.8977   10.8280 C.3     1  UNL1        0.1748
      2 CL          2.5865   30.0958    9.8719 Cl      1  UNL1       -0.0957
      3 CL          0.0138   28.7846   10.1626 Cl      1  UNL1       -0.0957
      4 CL          3.9911   27.6669   10.0222 Cl      1  UNL1       -0.1110
      5 C           2.3858   27.5534   10.7980 C.3     1  UNL1        0.1276
@<TRIPOS>BOND
     1     4     5    1
     2     5     1    1
     3     1     2    1
     4     1     3    1
#	Name:			CHEMBL438
#	Creating user name:	trannguyen
#	Creation time:		Tue Feb  8 18:26:14 2022


#	Modifying user name:	trannguyen
#	Modification time:	Tue Feb  8 18:26:14 2022

@<TRIPOS>MOLECULE
CHEMBL438
 21 22 0 0 0
SMALL
GASTEIGER

@<TRIPOS>ATOM
      1 S           3.6757   32.3247    8.7959 S.O2    1  UNL1        0.0758
      2 O           4.8642   31.6187    8.3762 O.2     1  UNL1       -0.1499
      3 O           3.7275   33.2557    9.9103 O.2     1  UNL1       -0.1499
      4 C           2.4396   31.1074    9.2077 C.ar    1  UNL1        0.1253
      5 C           2.7936   30.0285   10.0215 C.ar    1  UNL1        0.0214
      6 C           1.8203   29.1010   10.3962 C.ar    1  UNL1        0.0155
      7 C           0.5023   29.2241    9.9459 C.ar    1  UNL1        0.0416
      8 N          -0.4901   28.3790   10.4535 N.pl3   1  UNL1       -0.3570
      9 C           0.1515   30.3442    9.1832 C.ar    1  UNL1        0.0155
     10 C           1.1167   31.2798    8.7967 C.ar    1  UNL1        0.0214
     11 H          -0.1529   27.4648   10.7369 H       1  UNL1        0.1424
     12 H          -1.3264   28.3254    9.8812 H       1  UNL1        0.1424
     13 N           3.0074   33.1736    7.5179 N.pl3   1  UNL1       -0.1835
     14 H           1.9975   33.1440    7.5631 H       1  UNL1        0.1767
     15 C           6.0088   33.9927    3.9730 C.3     1  UNL1        0.0522
     16 C           4.9060   33.1612    4.5536 C.ar    1  UNL1        0.0638
     17 C           4.4405   32.0401    3.8932 C.ar    1  UNL1        0.0355
     18 C           3.4160   31.3541    4.5085 C.ar    1  UNL1        0.1031
     19 N           2.8859   31.7160    5.6892 N.ar    1  UNL1       -0.2111
     20 C           3.4492   32.7778    6.2590 C.ar    1  UNL1        0.2356
     21 N           4.4358   33.5300    5.7634 N.ar    1  UNL1       -0.2170
@<TRIPOS>BOND
     1    15    16    1
     2    16    17   ar
     3    16    21   ar
     4    17    18   ar
     5    18    19   ar
     6    19    20   ar
     7    20    13    1
     8    20    21   ar
     9    13     1    1
    10    13    14    1
    11     1     2    2
    12     1     3    2
    13     1     4    1
    14     4     5   ar
    15     4    10   ar
    16     5     6   ar
    17     6     7   ar
    18     7     8    1
    19     7     9   ar
    20     8    11    1
    21     8    12    1
    22     9    10   ar
#	Name:			CHEMBL439
#	Creating user name:	trannguyen
#	Creation time:		Tue Feb  8 18:26:14 2022


#	Modifying user name:	trannguyen
#	Modification time:	Tue Feb  8 18:26:14 2022

@<TRIPOS>MOLECULE
CHEMBL439
 20 21 0 0 0
SMALL
GASTEIGER

@<TRIPOS>ATOM
      1 S           1.5807   31.5807    7.9610 S.O2    1  UNL1        0.0758
      2 O           0.2524   32.1280    8.1226 O.2     1  UNL1       -0.1499
      3 O           2.7467   32.4383    8.0650 O.2     1  UNL1       -0.1499
      4 N           2.1340   27.1513   11.9176 N.pl3   1  UNL1       -0.3570
      5 C           1.9932   28.2424   11.0513 C.ar    1  UNL1        0.0416
      6 C           3.1271   28.8728   10.5281 C.ar    1  UNL1        0.0155
      7 C           3.0039   29.8961    9.5861 C.ar    1  UNL1        0.0214
      8 C           1.7337   30.2648    9.1390 C.ar    1  UNL1        0.1253
      9 C           0.5983   29.5896    9.5871 C.ar    1  UNL1        0.0214
     10 C           0.7371   28.5652   10.5264 C.ar    1  UNL1        0.0155
     11 H           2.9806   27.1864   12.4771 H       1  UNL1        0.1424
     12 H           1.3104   26.9758   12.4848 H       1  UNL1        0.1424
     13 N           1.5737   30.7737    6.4906 N.pl3   1  UNL1       -0.1835
     14 H           0.6473   30.4067    6.3023 H       1  UNL1        0.1767
     15 C           2.0476   31.5549    5.4439 C.ar    1  UNL1        0.2360
     16 N           1.2439   32.5639    5.1003 N.ar    1  UNL1       -0.2110
     17 C           1.7707   33.4349    4.2222 C.ar    1  UNL1        0.1035
     18 C           3.0248   33.2934    3.6717 C.ar    1  UNL1        0.0414
     19 C           3.7367   32.1889    4.0832 C.ar    1  UNL1        0.1035
     20 N           3.2771   31.3055    4.9872 N.ar    1  UNL1       -0.2110
@<TRIPOS>BOND
     1     4     5    1
     2     4    11    1
     3     4    12    1
     4     5     6   ar
     5     5    10   ar
     6     6     7   ar
     7     7     8   ar
     8     8     1    1
     9     8     9   ar
    10     1     2    2
    11     1     3    2
    12     1    13    1
    13    13    15    1
    14    13    14    1
    15    15    16   ar
    16    15    20   ar
    17    16    17   ar
    18    17    18   ar
    19    18    19   ar
    20    19    20   ar
    21     9    10   ar
#	Name:			CHEMBL441687
#	Creating user name:	trannguyen
#	Creation time:		Tue Feb  8 18:26:14 2022


#	Modifying user name:	trannguyen
#	Modification time:	Tue Feb  8 18:26:14 2022

@<TRIPOS>MOLECULE
CHEMBL441687
 66 72 0 0 0
SMALL
GASTEIGER

@<TRIPOS>ATOM
      1 C          11.2247   33.1263    6.7793 C.3     1  UNL1        0.0024
      2 C          10.0484   33.7671    7.5440 C.3     1  UNL1        0.0251
      3 C          10.3265   33.4586    9.0440 C.3     1  UNL1        0.0024
      4 C           8.6742   33.1328    7.1422 C.3     1  UNL1        0.1177
      5 C           8.2920   33.4971    5.7062 C.3     1  UNL1        0.0297
      6 C           8.1721   35.0152    5.5316 C.3     1  UNL1        0.0029
      7 C           9.4520   35.8070    5.9210 C.3     1  UNL1        0.0070
      8 C          10.4958   35.5166    4.8005 C.3     1  UNL1        0.0004
      9 C           9.9001   35.3175    7.3393 C.3     1  UNL1        0.0027
     10 C          11.0514   36.1602    7.8848 C.3     1  UNL1        0.0001
     11 C          10.4565   37.4985    8.2911 C.3     1  UNL1        0.0007
     12 C           9.8792   38.2893    7.0972 C.3     1  UNL1        0.0100
     13 C          11.1280   38.9885    6.4502 C.3     1  UNL1        0.0007
     14 C           9.2637   37.3894    5.9066 C.3     1  UNL1        0.0621
     15 C           7.9661   37.9937    5.3658 C.2     1  UNL1        0.1721
     16 O           6.9846   37.4154    4.9112 O.2     1  UNL1       -0.2914
     17 C           7.9598   39.4650    5.2902 C.2     1  UNL1        0.0289
     18 C           8.3838   40.1726    6.3517 C.2     1  UNL1       -0.0423
     19 C           8.3625   41.6971    6.2868 C.3     1  UNL1        0.0189
     20 C           8.7360   42.2361    4.8839 C.3     1  UNL1        0.0146
     21 C           8.7863   43.7767    4.7141 C.3     1  UNL1        0.0897
     22 C           9.8704   44.0943    3.6542 C.3     1  UNL1        0.0111
     23 C           9.1560   44.5632    6.0067 C.3     1  UNL1        0.0106
     24 C           8.7401   43.8945    7.3242 C.3     1  UNL1        0.0008
     25 C           9.1974   42.4186    7.3714 C.3     1  UNL1        0.0035
     26 C          10.7342   42.4066    7.1637 C.3     1  UNL1        0.0003
     27 C           8.8704   41.7645    8.7258 C.3     1  UNL1        0.0006
     28 C           9.3518   40.3054    8.7700 C.3     1  UNL1        0.0038
     29 C           8.8111   39.4000    7.6143 C.3     1  UNL1        0.0156
     30 C           7.5456   38.7170    8.2464 C.3     1  UNL1        0.0041
     31 C           7.4305   44.2904    4.1878 C.2     1  UNL1        0.3127
     32 O           6.3616   44.1254    4.7538 O.2     1  UNL1       -0.2503
     33 O           7.4926   44.9761    3.0211 O.3     1  UNL1       -0.4802
     34 H           8.3734   45.0543    2.6155 H       1  UNL1        0.2951
     35 O           7.6899   33.6478    8.0639 O.3     1  UNL1       -0.3312
     36 C           6.8021   32.7048    8.6584 C.3     1  UNL1        0.2664
     37 O           7.2990   32.2990    9.9299 O.3     1  UNL1       -0.3172
     38 C           7.5021   33.4240   10.8097 C.3     1  UNL1        0.2446
     39 C           6.2597   34.3063   10.9756 C.3     1  UNL1        0.1780
     40 O           6.6003   35.5911   11.5281 O.3     1  UNL1       -0.3790
     41 C           5.5056   34.5740    9.6591 C.3     1  UNL1        0.1724
     42 O           4.2030   35.0882    9.9922 O.3     1  UNL1       -0.3794
     43 C           5.3816   33.3059    8.8021 C.3     1  UNL1        0.2030
     44 H           7.2029   36.0509   10.9159 H       1  UNL1        0.2106
     45 H           4.3487   35.8268   10.6148 H       1  UNL1        0.2105
     46 C           7.9740   32.8151   12.1168 C.2     1  UNL1        0.3439
     47 O           7.3035   32.1500   12.8886 O.2     1  UNL1       -0.2475
     48 O           9.2421   33.1567   12.4358 O.3     1  UNL1       -0.4785
     49 H           9.6428   33.6455   11.6845 H       1  UNL1        0.2951
     50 O           4.7688   33.6475    7.5459 O.3     1  UNL1       -0.3233
     51 C           4.3329   32.5794    6.6975 C.3     1  UNL1        0.2663
     52 O           5.0909   32.6868    5.4914 O.3     1  UNL1       -0.3172
     53 C           4.7935   31.6762    4.5344 C.3     1  UNL1        0.2446
     54 C           3.3585   31.7875    4.0423 C.3     1  UNL1        0.1780
     55 O           3.0489   30.7072    3.1524 O.3     1  UNL1       -0.3790
     56 C           2.4414   31.6545    5.2487 C.3     1  UNL1        0.1720
     57 O           1.0871   31.8598    4.8217 O.3     1  UNL1       -0.3794
     58 C           2.8101   32.6029    6.3963 C.3     1  UNL1        0.1965
     59 O           2.0302   32.1924    7.5415 O.3     1  UNL1       -0.3775
     60 H           2.1011   30.8163    2.9353 H       1  UNL1        0.2106
     61 H           0.5693   32.0938    5.6157 H       1  UNL1        0.2105
     62 H           2.1809   31.2427    7.6988 H       1  UNL1        0.2106
     63 C           5.7303   31.7603    3.3440 C.2     1  UNL1        0.3439
     64 O           6.1182   32.8009    2.8161 O.2     1  UNL1       -0.2475
     65 O           6.1333   30.5497    2.9079 O.3     1  UNL1       -0.4785
     66 H           5.8348   29.8372    3.5271 H       1  UNL1        0.2951
@<TRIPOS>BOND
     1     1     2    1
     2     2     4    1
     3     2     9    1
     4     2     3    1
     5     4     5    1
     6     4    35    1
     7    35    36    1
     8    36    37    1
     9    36    43    1
    10    37    38    1
    11    38    46    1
    12    38    39    1
    13    46    47    2
    14    46    48    1
    15    48    49    1
    16    39    41    1
    17    39    40    1
    18    40    44    1
    19    41    42    1
    20    41    43    1
    21    42    45    1
    22    43    50    1
    23    51    52    1
    24    51    58    1
    25    51    50    1
    26    52    53    1
    27    53    63    1
    28    53    54    1
    29    63    64    2
    30    63    65    1
    31    65    66    1
    32    54    56    1
    33    54    55    1
    34    55    60    1
    35    56    57    1
    36    56    58    1
    37    57    61    1
    38    58    59    1
    39    59    62    1
    40     5     6    1
    41     6     7    1
    42     7     9    1
    43     7    14    1
    44     7     8    1
    45     9    10    1
    46    10    11    1
    47    11    12    1
    48    12    14    1
    49    12    29    1
    50    12    13    1
    51    14    15    1
    52    15    17    1
    53    15    16    2
    54    17    18    2
    55    18    19    1
    56    18    29    1
    57    19    20    1
    58    19    25    1
    59    20    21    1
    60    21    23    1
    61    21    31    1
    62    21    22    1
    63    31    32    2
    64    31    33    1
    65    33    34    1
    66    23    24    1
    67    24    25    1
    68    25    27    1
    69    25    26    1
    70    27    28    1
    71    28    29    1
    72    29    30    1
#	Name:			CHEMBL442
#	Creating user name:	trannguyen
#	Creation time:		Tue Feb  8 18:26:14 2022


#	Modifying user name:	trannguyen
#	Modification time:	Tue Feb  8 18:26:14 2022

@<TRIPOS>MOLECULE
CHEMBL442
 46 53 0 0 0
SMALL
GASTEIGER

@<TRIPOS>ATOM
      1 C           9.2289   34.1303   11.2891 C.3     1  UNL1        0.2256
      2 C           9.5833   33.3856   12.5741 C.3     1  UNL1        0.0607
      3 O           8.6936   35.4335   11.5537 O.3     1  UNL1       -0.2976
      4 C           9.7672   36.3547   11.4955 C.3     1  UNL1        0.2754
      5 O          10.4567   36.3707   12.7332 O.3     1  UNL1       -0.3478
      6 C           9.3218   37.7905   11.1853 C.3     1  UNL1        0.1465
      7 C           8.2221   38.0204   10.1611 C.3     1  UNL1        0.0285
      8 C           8.3457   39.5270    9.8898 C.3     1  UNL1        0.0234
      9 C           9.8253   39.8648   10.1291 C.3     1  UNL1        0.0937
     10 N          10.3944   38.6483   10.6788 N.am    1  UNL1       -0.2734
     11 C          11.5911   38.1728   10.1683 C.2     1  UNL1        0.2444
     12 O          12.4831   38.9379    9.7955 O.2     1  UNL1       -0.2731
     13 C          11.7257   36.6345    9.9451 C.3     1  UNL1        0.1604
     14 N          10.6630   35.8215   10.5428 N.am    1  UNL1       -0.2268
     15 C          10.5034   34.4557   10.4839 C.2     1  UNL1        0.2719
     16 O          11.1929   33.6651    9.8648 O.2     1  UNL1       -0.2704
     17 H          11.3426   36.0247   12.5530 H       1  UNL1        0.2145
     18 C           7.1292   32.8686   10.8669 C.2     1  UNL1        0.2293
     19 O           6.7459   32.9601   12.0289 O.2     1  UNL1       -0.2746
     20 N           8.3083   33.4221   10.4211 N.am    1  UNL1       -0.2787
     21 H           8.6144   33.2537    9.4718 H       1  UNL1        0.1519
     22 C           3.8377   31.1073    8.3726 C.3     1  UNL1        0.0899
     23 N           4.2337   32.5141    8.3873 N.3     1  UNL1       -0.2681
     24 C           4.9611   32.8622    9.6250 C.3     1  UNL1        0.0859
     25 C           6.3195   32.1483    9.7786 C.3     1  UNL1        0.1141
     26 C           7.1069   32.1413    8.4877 C.2     1  UNL1       -0.0190
     27 C           6.5627   32.5260    7.3138 C.2     1  UNL1       -0.0112
     28 C           7.3862   32.6766    6.0857 C.ar    1  UNL1       -0.0019
     29 C           8.7834   32.7027    5.9748 C.ar    1  UNL1       -0.0002
     30 C           9.4046   32.9357    4.7401 C.ar    1  UNL1        0.0015
     31 C           8.6645   33.1620    3.5705 C.ar    1  UNL1        0.0170
     32 C           7.2740   33.1307    3.6906 C.ar    1  UNL1        0.0563
     33 N           6.2652   33.3196    2.7704 N.ar    1  UNL1       -0.3523
     34 H           6.4124   33.5337    1.7940 H       1  UNL1        0.1660
     35 C           5.0347   33.1708    3.3716 C.ar    1  UNL1        0.0681
     36 C           5.2569   32.8907    4.7002 C.ar    1  UNL1       -0.0021
     37 C           6.6539   32.8835    4.9054 C.ar    1  UNL1        0.0128
     38 C           4.3524   32.5860    5.8411 C.3     1  UNL1        0.0484
     39 C           5.0547   32.9267    7.2080 C.3     1  UNL1        0.0843
     40 C          11.9179   36.3772    8.4252 C.3     1  UNL1        0.0557
     41 C          10.7508   36.8105    7.5608 C.ar    1  UNL1       -0.0200
     42 C          10.7444   38.0615    6.9308 C.ar    1  UNL1       -0.0042
     43 C           9.7113   38.4077    6.0558 C.ar    1  UNL1       -0.0003
     44 C           8.6703   37.5129    5.8120 C.ar    1  UNL1       -0.0000
     45 C           8.6456   36.2825    6.4634 C.ar    1  UNL1       -0.0003
     46 C           9.6744   35.9380    7.3403 C.ar    1  UNL1       -0.0042
@<TRIPOS>BOND
     1    22    23    1
     2    23    24    1
     3    23    39    1
     4    24    25    1
     5    25    26    1
     6    25    18    1
     7    18    19    2
     8    18    20   am
     9    20    21    1
    10     1     3    1
    11     1    15    1
    12     1     2    1
    13     1    20    1
    14     3     4    1
    15     4     6    1
    16     4    14    1
    17     4     5    1
    18     5    17    1
    19     6     7    1
    20     6    10    1
    21     7     8    1
    22     8     9    1
    23     9    10    1
    24    10    11   am
    25    11    13    1
    26    11    12    2
    27    13    14    1
    28    13    40    1
    29    40    41    1
    30    41    42   ar
    31    41    46   ar
    32    42    43   ar
    33    43    44   ar
    34    44    45   ar
    35    45    46   ar
    36    14    15   am
    37    15    16    2
    38    26    27    2
    39    27    28    1
    40    27    39    1
    41    28    29   ar
    42    28    37   ar
    43    29    30   ar
    44    30    31   ar
    45    31    32   ar
    46    32    33   ar
    47    32    37   ar
    48    33    34    1
    49    33    35   ar
    50    35    36   ar
    51    36    37   ar
    52    36    38    1
    53    38    39    1
#	Name:			CHEMBL443
#	Creating user name:	trannguyen
#	Creation time:		Tue Feb  8 18:26:14 2022


#	Modifying user name:	trannguyen
#	Modification time:	Tue Feb  8 18:26:14 2022

@<TRIPOS>MOLECULE
CHEMBL443
 20 21 0 0 0
SMALL
GASTEIGER

@<TRIPOS>ATOM
      1 S           4.2680   32.4476    8.9308 S.O2    1  UNL1        0.0748
      2 O           5.3470   32.2144    8.0041 O.2     1  UNL1       -0.1499
      3 O           4.4270   33.2514   10.1301 O.2     1  UNL1       -0.1499
      4 C           3.6612   30.8559    9.4274 C.ar    1  UNL1        0.1253
      5 C           2.2877   30.6124    9.4518 C.ar    1  UNL1        0.0214
      6 C           1.8225   29.3480    9.8188 C.ar    1  UNL1        0.0155
      7 C           2.7134   28.3413   10.2056 C.ar    1  UNL1        0.0416
      8 N           2.2455   27.0427   10.4359 N.pl3   1  UNL1       -0.3570
      9 C           4.0882   28.5899   10.1282 C.ar    1  UNL1        0.0155
     10 C           4.5690   29.8508    9.7648 C.ar    1  UNL1        0.0214
     11 H           1.2896   27.0057   10.7772 H       1  UNL1        0.1424
     12 H           2.8716   26.4722   10.9958 H       1  UNL1        0.1424
     13 N           2.9122   33.0829    8.1180 N.pl3   1  UNL1       -0.1962
     14 H           2.9129   34.0757    8.3614 H       1  UNL1        0.1754
     15 C           2.4487   31.6730    3.3496 C.3     1  UNL1        0.0754
     16 C           2.7322   32.2718    4.6658 C.ar    1  UNL1        0.1562
     17 C           2.5496   31.8674    5.9656 C.ar    1  UNL1        0.0745
     18 C           2.9750   32.9695    6.7288 C.ar    1  UNL1        0.1888
     19 N           3.3793   33.9821    5.9621 N.ar    1  UNL1       -0.0610
     20 O           3.2663   33.5241    4.6582 O.2     1  UNL1       -0.3565
@<TRIPOS>BOND
     1    15    16    1
     2    16    17   ar
     3    16    20   ar
     4    17    18   ar
     5    18    13    1
     6    18    19   ar
     7    13     1    1
     8    13    14    1
     9     1     2    2
    10     1     3    2
    11     1     4    1
    12     4     5   ar
    13     4    10   ar
    14     5     6   ar
    15     6     7   ar
    16     7     8    1
    17     7     9   ar
    18     8    11    1
    19     8    12    1
    20     9    10   ar
    21    19    20   ar
#	Name:			CHEMBL444633
#	Creating user name:	trannguyen
#	Creation time:		Tue Feb  8 18:26:14 2022


#	Modifying user name:	trannguyen
#	Modification time:	Tue Feb  8 18:26:14 2022

@<TRIPOS>MOLECULE
CHEMBL444633
 66 71 0 0 0
SMALL
GASTEIGER

@<TRIPOS>ATOM
      1 C          11.7316   37.5531    6.0045 C.3     1  UNL1        0.1438
      2 C          11.6736   36.9864    4.5961 C.2     1  UNL1        0.0431
      3 C          10.8250   36.0981    4.0542 C.2     1  UNL1        0.1742
      4 O           9.7341   35.5672    4.6865 O.2     1  UNL1       -0.4400
      5 C           9.3010   34.2723    4.2252 C.3     1  UNL1        0.3263
      6 C           8.6099   34.3410    2.8709 C.3     1  UNL1        0.1003
      7 O          10.3875   33.3023    4.2090 O.3     1  UNL1       -0.4430
      8 C          10.3393   32.7099    5.4498 C.ar    1  UNL1        0.1444
      9 C          11.4400   32.1414    6.0783 C.ar    1  UNL1        0.0461
     10 C          12.7258   31.9368    5.3389 C.3     1  UNL1        0.0374
     11 C          11.3098   31.9164    7.4595 C.ar    1  UNL1        0.1356
     12 O          12.3747   31.4903    8.2025 O.3     1  UNL1       -0.5056
     13 C          10.0759   32.1256    8.1133 C.ar    1  UNL1        0.0753
     14 C           8.9225   32.3598    7.3661 C.ar    1  UNL1        0.0305
     15 C           9.1078   32.7902    6.0763 C.ar    1  UNL1        0.0775
     16 C           8.3298   33.7136    5.2763 C.2     1  UNL1        0.2514
     17 O           7.1916   34.0460    5.5006 O.2     1  UNL1       -0.2836
     18 C           7.6435   32.1583    8.0349 C.2     1  UNL1        0.0925
     19 N           6.5297   31.7085    7.5113 N.2     1  UNL1       -0.2545
     20 C           5.6242   31.5970    8.7192 C.3     1  UNL1        0.1430
     21 C           4.1949   32.0747    8.4365 C.3     1  UNL1        0.0586
     22 C           3.1849   30.9136    8.4004 C.3     1  UNL1        0.0758
     23 N           3.2001   30.0191    9.5739 N.3     1  UNL1       -0.2724
     24 C           4.5385   29.8506   10.1497 C.3     1  UNL1        0.0758
     25 C           5.6414   30.1065    9.1354 C.3     1  UNL1        0.0586
     26 N           6.2526   32.3753    9.8071 N.pl3   1  UNL1       -0.3160
     27 C           7.5745   32.4943    9.4665 C.2     1  UNL1        0.0802
     28 C           8.6715   32.8718   10.1184 C.2     1  UNL1        0.1049
     29 N           8.7115   33.6679   11.2567 N.am    1  UNL1       -0.2771
     30 C           7.9900   34.8581   11.2275 C.2     1  UNL1        0.2456
     31 O           6.7896   34.9218   10.9696 O.2     1  UNL1       -0.2702
     32 C           8.8337   36.1136   11.3648 C.2     1  UNL1        0.0318
     33 C          10.2618   35.9894   11.8105 C.3     1  UNL1        0.0358
     34 C           8.2359   37.2592   10.9707 C.2     1  UNL1       -0.0001
     35 C           8.8345   38.5783   10.8990 C.2     1  UNL1       -0.0047
     36 C           8.1505   39.6703   10.5156 C.2     1  UNL1       -0.0240
     37 C           8.7460   41.0659   10.4563 C.3     1  UNL1        0.0490
     38 C           8.3899   41.7819   11.7681 C.3     1  UNL1        0.0072
     39 C           8.2872   41.9237    9.2324 C.3     1  UNL1        0.1167
     40 O           7.5828   41.1401    8.2665 O.3     1  UNL1       -0.3840
     41 C           9.3799   42.7949    8.5394 C.3     1  UNL1        0.0542
     42 C          10.1183   43.7273    9.4988 C.3     1  UNL1        0.0050
     43 C          10.3148   42.0719    7.5278 C.3     1  UNL1        0.1162
     44 O           9.4818   41.6133    6.4685 O.3     1  UNL1       -0.3843
     45 C          11.1994   40.8911    8.0026 C.3     1  UNL1        0.0672
     46 C          12.3645   41.4221    8.8722 C.3     1  UNL1        0.0062
     47 C          11.8190   39.9911    6.8706 C.3     1  UNL1        0.1736
     48 C          10.9587   38.9267    6.0806 C.3     1  UNL1        0.0717
     49 C           9.5147   38.6931    6.5612 C.3     1  UNL1        0.0066
     50 C          10.0033   32.4526    9.5681 C.2     1  UNL1        0.2131
     51 O          10.9886   32.5551   10.2940 O.2     1  UNL1       -0.2851
     52 H          13.2053   31.5885    7.7121 H       1  UNL1        0.2922
     53 H           5.8532   33.3049    9.9752 H       1  UNL1        0.1485
     54 H           9.6640   33.7155   11.6056 H       1  UNL1        0.1553
     55 H           8.1665   40.9929    7.4944 H       1  UNL1        0.2103
     56 H           9.2977   42.3554    5.8622 H       1  UNL1        0.2103
     57 C          12.1994   35.6168    7.3922 C.3     1  UNL1        0.1745
     58 O          11.2508   36.5420    6.8970 O.3     1  UNL1       -0.3490
     59 C           2.1885   30.3812   10.5817 C.3     1  UNL1        0.0720
     60 C           1.1824   29.2637   10.9676 C.3     1  UNL1        0.0160
     61 C           0.1826   29.0446    9.8271 C.3     1  UNL1        0.0014
     62 C           1.8613   27.9356   11.3105 C.3     1  UNL1        0.0014
     63 O          12.7277   40.8032    6.0579 O.3     1  UNL1       -0.4521
     64 C          12.4851   41.0084    4.7372 C.2     1  UNL1        0.3174
     65 C          13.5073   40.3039    3.8890 C.3     1  UNL1        0.1212
     66 O          11.5917   41.6936    4.2645 O.2     1  UNL1       -0.2501
@<TRIPOS>BOND
     1    57    58    1
     2    58     1    1
     3     1     2    1
     4     1    48    1
     5     2     3    2
     6     3     4    1
     7     4     5    1
     8     5     7    1
     9     5    16    1
    10     5     6    1
    11     7     8    1
    12     8     9   ar
    13     8    15   ar
    14     9    11   ar
    15     9    10    1
    16    11    13   ar
    17    11    12    1
    18    12    52    1
    19    13    14   ar
    20    13    50    1
    21    14    15   ar
    22    14    18    1
    23    15    16    1
    24    16    17    2
    25    18    19    2
    26    18    27    1
    27    19    20    1
    28    20    21    1
    29    20    25    1
    30    20    26    1
    31    21    22    1
    32    22    23    1
    33    23    59    1
    34    23    24    1
    35    59    60    1
    36    60    61    1
    37    60    62    1
    38    24    25    1
    39    26    27    1
    40    26    53    1
    41    27    28    2
    42    28    29    1
    43    28    50    1
    44    29    30   am
    45    29    54    1
    46    30    32    1
    47    30    31    2
    48    32    34    2
    49    32    33    1
    50    34    35    1
    51    35    36    2
    52    36    37    1
    53    37    39    1
    54    37    38    1
    55    39    41    1
    56    39    40    1
    57    40    55    1
    58    41    43    1
    59    41    42    1
    60    43    45    1
    61    43    44    1
    62    44    56    1
    63    45    47    1
    64    45    46    1
    65    47    48    1
    66    47    63    1
    67    63    64    1
    68    64    65    1
    69    64    66    2
    70    48    49    1
    71    50    51    2
#	Name:			CHEMBL445206
#	Creating user name:	trannguyen
#	Creation time:		Tue Feb  8 18:26:14 2022


#	Modifying user name:	trannguyen
#	Modification time:	Tue Feb  8 18:26:14 2022

@<TRIPOS>MOLECULE
CHEMBL445206
 13 13 0 0 0
SMALL
GASTEIGER

@<TRIPOS>ATOM
      1 C           3.4025   30.0865    9.7016 C.ar    1  UNL1        0.0029
      2 C           4.3148   29.0352    9.7944 C.ar    1  UNL1        0.0033
      3 C           3.8971   27.7831   10.2478 C.ar    1  UNL1        0.0398
      4 C           2.5635   27.5730   10.6137 C.ar    1  UNL1        0.1677
      5 O           2.2051   26.3241   11.0409 O.3     1  UNL1       -0.5029
      6 C           1.6343   28.6177   10.5343 C.ar    1  UNL1        0.1721
      7 C           2.0700   29.8724   10.0762 C.ar    1  UNL1        0.0400
      8 H           2.9741   25.7344   10.9897 H       1  UNL1        0.2923
      9 C           2.5227   31.3491    6.9809 C.3     1  UNL1        0.0307
     10 C           3.4642   31.9169    7.9948 C.2     1  UNL1       -0.0258
     11 C           3.8316   31.3816    9.1645 C.2     1  UNL1       -0.0045
     12 O           0.2992   28.5865   10.8430 O.3     1  UNL1       -0.4684
     13 C          -0.6247   29.0052    9.8473 C.3     1  UNL1        0.2526
@<TRIPOS>BOND
     1     9    10    1
     2    10    11    2
     3    11     1    1
     4     1     2   ar
     5     1     7   ar
     6     2     3   ar
     7     3     4   ar
     8     4     5    1
     9     4     6   ar
    10     5     8    1
    11     6    12    1
    12     6     7   ar
    13    12    13    1
#	Name:			CHEMBL4455828
#	Creating user name:	trannguyen
#	Creation time:		Tue Feb  8 18:26:14 2022


#	Modifying user name:	trannguyen
#	Modification time:	Tue Feb  8 18:26:14 2022

@<TRIPOS>MOLECULE
CHEMBL4455828
 72 78 0 0 0
SMALL
GASTEIGER

@<TRIPOS>ATOM
      1 C           9.2062   32.6418   -1.5570 C.3     1  UNL1        0.1312
      2 C           8.7254   33.2186   -2.8915 C.3     1  UNL1        0.0599
      3 C           9.7400   33.1751   -4.0419 C.3     1  UNL1        0.1220
      4 O          10.9793   33.6993   -3.5933 O.3     1  UNL1       -0.3366
      5 C          11.4364   33.0708   -2.3886 C.3     1  UNL1        0.1871
      6 C          11.9598   34.1812   -1.5101 C.3     1  UNL1        0.0612
      7 C          12.6124   32.1519   -2.6037 C.3     1  UNL1        0.0612
      8 O          10.5214   32.1768   -1.7271 O.3     1  UNL1       -0.3361
      9 C           9.1692   33.9039   -5.3249 C.3     1  UNL1        0.0542
     10 C          10.0651   34.9530   -6.0649 C.3     1  UNL1        0.1082
     11 N           9.9005   36.4196   -6.2976 N.ar    1  UNL1       -0.3304
     12 C           9.2014   37.3150   -5.3696 C.ar    1  UNL1        0.0597
     13 C           8.6726   38.4050   -6.2037 C.ar    1  UNL1        0.0212
     14 C           8.8677   37.8710   -7.5987 C.ar    1  UNL1        0.0667
     15 C          10.0794   37.1282   -7.4794 C.ar    1  UNL1        0.0410
     16 C           9.1844   37.0076   -3.8634 C.ar    1  UNL1        0.0159
     17 C           7.9882   36.7443   -3.1939 C.ar    1  UNL1        0.0037
     18 C           7.8749   36.6681   -1.7976 C.ar    1  UNL1        0.0297
     19 C           8.9625   36.9577   -1.0043 C.ar    1  UNL1        0.1401
     20 F           8.8280   37.0221    0.3248 F       1  UNL1       -0.2042
     21 C          10.1875   37.1659   -1.5914 C.ar    1  UNL1        0.0297
     22 C          10.2986   37.0990   -2.9915 C.ar    1  UNL1        0.0037
     23 C           7.6940   39.6225   -5.8562 C.ar    1  UNL1        0.0016
     24 C           6.2982   39.5524   -6.1277 C.ar    1  UNL1        0.0000
     25 C           5.2964   40.3215   -5.4526 C.ar    1  UNL1        0.0000
     26 C           5.6495   41.3040   -4.5473 C.ar    1  UNL1        0.0000
     27 C           7.0017   41.5067   -4.3419 C.ar    1  UNL1        0.0000
     28 C           7.9778   40.6752   -4.9701 C.ar    1  UNL1        0.0000
     29 C           8.0160   38.1352   -8.8456 C.2     1  UNL1        0.2506
     30 O           7.1979   37.3341   -9.3056 O.2     1  UNL1       -0.2698
     31 N           8.1550   39.2948   -9.6377 N.am    1  UNL1       -0.2803
     32 H           7.9508   39.0421  -10.6040 H       1  UNL1        0.1552
     33 C           8.8300   40.5345   -9.3961 C.ar    1  UNL1        0.0505
     34 C           8.2244   41.4961   -8.6085 C.ar    1  UNL1        0.0147
     35 C           8.9382   42.4456   -7.8633 C.ar    1  UNL1        0.0013
     36 C          10.2949   42.5953   -8.0515 C.ar    1  UNL1        0.0001
     37 C          10.9146   41.7426   -8.9690 C.ar    1  UNL1        0.0013
     38 C          10.1924   40.7221   -9.6579 C.ar    1  UNL1        0.0147
     39 C          11.4387   37.3359   -8.1987 C.3     1  UNL1        0.0385
     40 C          11.4883   37.6852   -9.6875 C.3     1  UNL1        0.0062
     41 C          12.0963   38.5590   -7.6249 C.3     1  UNL1        0.0062
     42 C           9.0309   33.2758   -0.1563 C.3     1  UNL1        0.1391
     43 C           8.3092   32.5171    0.9441 C.2     1  UNL1        0.3199
     44 O           8.6121   31.4777    1.3172 O.2     1  UNL1       -0.2500
     45 O           7.2335   33.3028    1.3584 O.3     1  UNL1       -0.4416
     46 C           7.0076   33.3628    2.7754 C.3     1  UNL1        0.2573
     47 N           3.6715   32.0799    3.5160 N.ar    1  UNL1       -0.2278
     48 C           4.4939   33.1540    3.3125 C.ar    1  UNL1        0.1170
     49 C           5.7411   32.6227    3.0742 C.ar    1  UNL1        0.1446
     50 N           5.6830   31.2883    3.4194 N.ar    1  UNL1       -0.1294
     51 N           4.4073   30.9641    3.6669 N.ar    1  UNL1       -0.0639
     52 C           2.2305   32.1538    3.7181 C.3     1  UNL1        0.1613
     53 C           1.9134   32.9432    4.9740 C.3     1  UNL1        0.1712
     54 O           1.5838   32.1495    6.1091 O.3     1  UNL1       -0.3271
     55 C           3.9468   32.7181    6.9689 C.3     1  UNL1        0.1579
     56 C           2.7521   31.6716    6.8060 C.3     1  UNL1        0.2564
     57 O           2.2775   31.0809    8.0032 O.3     1  UNL1       -0.3265
     58 C           3.1949   31.1131    9.0924 C.3     1  UNL1        0.1760
     59 C           3.5635   32.6389    9.5385 C.3     1  UNL1        0.1686
     60 O           2.8824   33.4998   10.4747 O.3     1  UNL1       -0.3794
     61 C           3.8348   33.5516    8.2820 C.3     1  UNL1        0.1625
     62 O           2.8990   34.6579    8.1373 O.3     1  UNL1       -0.3801
     63 H           2.2309   33.0733   11.0493 H       1  UNL1        0.2105
     64 H           2.6174   34.9543    9.0253 H       1  UNL1        0.2105
     65 C           7.7396   31.7658    6.3571 C.3     1  UNL1        0.0946
     66 C           6.5571   32.6958    6.5867 C.2     1  UNL1        0.2231
     67 O           6.7499   33.8939    6.6830 O.2     1  UNL1       -0.2751
     68 N           5.3148   32.0911    6.7075 N.am    1  UNL1       -0.2994
     69 H           5.2894   31.0999    6.5107 H       1  UNL1        0.1496
     70 C           2.7072   29.9309    9.9825 C.3     1  UNL1        0.1693
     71 O           3.6561   29.4451   10.9095 O.3     1  UNL1       -0.3794
     72 H           3.3650   28.5329   11.1235 H       1  UNL1        0.2105
@<TRIPOS>BOND
     1    65    66    1
     2    66    67    2
     3    66    68   am
     4    68    55    1
     5    68    69    1
     6    55    56    1
     7    55    61    1
     8    56    57    1
     9    56    54    1
    10    54    53    1
    11    53    52    1
    12    52    47    1
    13    47    48   ar
    14    47    51   ar
    15    48    49   ar
    16    49    46    1
    17    49    50   ar
    18    46    45    1
    19    45    43    1
    20    43    44    2
    21    43    42    1
    22    42     1    1
    23     1     2    1
    24     1     8    1
    25     2     3    1
    26     3     4    1
    27     3     9    1
    28     9    10    1
    29    10    11    1
    30    11    12   ar
    31    11    15   ar
    32    12    16    1
    33    12    13   ar
    34    16    17   ar
    35    16    22   ar
    36    17    18   ar
    37    18    19   ar
    38    19    20    1
    39    19    21   ar
    40    21    22   ar
    41    13    23    1
    42    13    14   ar
    43    23    24   ar
    44    23    28   ar
    45    24    25   ar
    46    25    26   ar
    47    26    27   ar
    48    27    28   ar
    49    14    29    1
    50    14    15   ar
    51    29    30    2
    52    29    31   am
    53    31    33    1
    54    31    32    1
    55    33    34   ar
    56    33    38   ar
    57    34    35   ar
    58    35    36   ar
    59    36    37   ar
    60    37    38   ar
    61    15    39    1
    62    39    40    1
    63    39    41    1
    64     4     5    1
    65     5     6    1
    66     5     7    1
    67     5     8    1
    68    50    51   ar
    69    57    58    1
    70    58    70    1
    71    58    59    1
    72    70    71    1
    73    71    72    1
    74    59    60    1
    75    59    61    1
    76    60    63    1
    77    61    62    1
    78    62    64    1
#	Name:			CHEMBL445
#	Creating user name:	trannguyen
#	Creation time:		Tue Feb  8 18:26:14 2022


#	Modifying user name:	trannguyen
#	Modification time:	Tue Feb  8 18:26:14 2022

@<TRIPOS>MOLECULE
CHEMBL445
 21 23 0 0 0
SMALL
GASTEIGER

@<TRIPOS>ATOM
      1 C           1.8971   32.3841    8.6623 C.2     1  UNL1       -0.0247
      2 C           2.9099   31.7067    8.0773 C.2     1  UNL1       -0.0048
      3 C           3.9153   31.0220    8.9174 C.ar    1  UNL1       -0.0043
      4 C           3.6188   29.8138    9.5596 C.ar    1  UNL1       -0.0003
      5 C           4.5719   29.2021   10.3744 C.ar    1  UNL1       -0.0000
      6 C           5.8191   29.7978   10.5562 C.ar    1  UNL1       -0.0003
      7 C           6.1304   30.9876    9.8965 C.ar    1  UNL1       -0.0043
      8 C           5.1890   31.5959    9.0557 C.ar    1  UNL1       -0.0218
      9 C           5.5393   32.8261    8.2556 C.3     1  UNL1        0.0310
     10 C           5.5896   32.5209    6.7522 C.3     1  UNL1        0.0310
     11 C           4.3012   32.2051    6.0066 C.ar    1  UNL1       -0.0218
     12 C           4.3767   32.2596    4.5970 C.ar    1  UNL1       -0.0043
     13 C           3.2739   31.9693    3.7948 C.ar    1  UNL1       -0.0003
     14 C           2.0724   31.6010    4.3831 C.ar    1  UNL1       -0.0000
     15 C           1.9788   31.5227    5.7726 C.ar    1  UNL1       -0.0003
     16 C           3.0773   31.8283    6.6020 C.ar    1  UNL1       -0.0043
     17 C           1.6161   32.5613   10.1393 C.3     1  UNL1        0.0431
     18 C           1.2616   34.0141   10.4920 C.3     1  UNL1        0.0733
     19 C          -0.4932   35.6663   10.5678 C.3     1  UNL1        0.0859
     20 N          -0.1463   34.3017   10.1897 N.3     1  UNL1       -0.2960
     21 H          -0.3090   34.1789    9.1898 H       1  UNL1        0.1233
@<TRIPOS>BOND
     1    19    20    1
     2    20    18    1
     3    20    21    1
     4    18    17    1
     5    17     1    1
     6     1     2    2
     7     2     3    1
     8     2    16    1
     9     3     4   ar
    10     3     8   ar
    11     4     5   ar
    12     5     6   ar
    13     6     7   ar
    14     7     8   ar
    15     8     9    1
    16     9    10    1
    17    10    11    1
    18    11    12   ar
    19    11    16   ar
    20    12    13   ar
    21    13    14   ar
    22    14    15   ar
    23    15    16   ar
#	Name:			CHEMBL44618
#	Creating user name:	trannguyen
#	Creation time:		Tue Feb  8 18:26:14 2022


#	Modifying user name:	trannguyen
#	Modification time:	Tue Feb  8 18:26:14 2022

@<TRIPOS>MOLECULE
CHEMBL44618
 4 3 0 0 0
SMALL
GASTEIGER

@<TRIPOS>ATOM
      1 CL          4.3781   27.9214    9.9110 Cl      1  UNL1       -0.0788
      2 C           3.1051   28.9620   10.5711 C.3     1  UNL1        0.2364
      3 CL          2.4284   29.9982    9.3034 Cl      1  UNL1       -0.0788
      4 CL          1.8317   27.9866   11.3235 Cl      1  UNL1       -0.0788
@<TRIPOS>BOND
     1     1     2    1
     2     2     3    1
     3     2     4    1
#	Name:			CHEMBL44657
#	Creating user name:	trannguyen
#	Creation time:		Tue Feb  8 18:26:14 2022


#	Modifying user name:	trannguyen
#	Modification time:	Tue Feb  8 18:26:14 2022

@<TRIPOS>MOLECULE
CHEMBL44657
 45 51 0 0 0
SMALL
GASTEIGER

@<TRIPOS>ATOM
      1 C           4.6002   31.7437    5.7830 C.3     1  UNL1        0.0554
      2 C           6.0928   32.1062    5.7126 C.ar    1  UNL1       -0.0164
      3 C           6.9661   31.5510    6.6790 C.ar    1  UNL1        0.0360
      4 C           8.3099   31.8568    6.6245 C.ar    1  UNL1        0.1761
      5 C           8.8120   32.7247    5.6920 C.ar    1  UNL1        0.1762
      6 C           8.0003   33.3111    4.7498 C.ar    1  UNL1        0.0379
      7 C           6.6250   32.9729    4.7239 C.ar    1  UNL1        0.0043
      8 C           5.8336   33.4310    3.5168 C.3     1  UNL1        0.1439
      9 C           4.3361   33.2123    3.6121 C.3     1  UNL1        0.0865
     10 C           3.5414   34.3948    4.1042 C.3     1  UNL1        0.2117
     11 O           2.2871   33.8363    4.4875 O.3     1  UNL1       -0.4484
     12 C           2.4131   32.4778    4.6565 C.2     1  UNL1        0.3173
     13 O           1.4956   31.7374    4.8846 O.2     1  UNL1       -0.2501
     14 C           3.8525   32.0600    4.4739 C.3     1  UNL1        0.1134
     15 O          10.1612   32.8677    5.7831 O.3     1  UNL1       -0.4346
     16 C          10.4614   31.8831    6.7941 C.3     1  UNL1        0.4294
     17 O           9.2817   31.3388    7.4230 O.3     1  UNL1       -0.4346
     18 C           3.4291   33.9106    8.7739 C.ar    1  UNL1        0.1749
     19 C           4.0715   33.4945    7.5925 C.ar    1  UNL1        0.0363
     20 C           3.9324   32.1892    7.0914 C.ar    1  UNL1       -0.0117
     21 C           3.1221   31.3082    7.8074 C.ar    1  UNL1        0.0363
     22 C           2.4419   31.6887    8.9654 C.ar    1  UNL1        0.1749
     23 C           2.6243   32.9931    9.4632 C.ar    1  UNL1        0.2024
     24 O           2.0076   33.3491   10.6330 O.3     1  UNL1       -0.5009
     25 H           2.5104   32.8922   11.3302 H       1  UNL1        0.2924
     26 C           2.6121   36.1594    8.9703 C.3     1  UNL1        0.2526
     27 O           3.6749   35.2235    9.0839 O.3     1  UNL1       -0.4683
     28 O           1.6509   30.8082    9.6651 O.3     1  UNL1       -0.4683
     29 C           2.3129   29.6701   10.2345 C.3     1  UNL1        0.2526
     30 O           6.3867   32.6393    2.4591 O.3     1  UNL1       -0.3265
     31 C           7.1731   33.2829    1.4572 C.3     1  UNL1        0.2659
     32 O           6.2879   34.2161    0.8322 O.3     1  UNL1       -0.3259
     33 C           6.8318   34.9837   -0.2319 C.3     1  UNL1        0.1769
     34 C           7.8610   36.0205    0.2041 C.3     1  UNL1        0.1768
     35 O           8.2897   36.7689   -0.9251 O.3     1  UNL1       -0.3278
     36 C           8.8382   35.9762   -1.9719 C.3     1  UNL1        0.2354
     37 C          10.2969   35.6103   -1.7214 C.3     1  UNL1        0.0665
     38 O           8.0394   34.8591   -2.3687 O.3     1  UNL1       -0.3278
     39 C           7.4198   34.1032   -1.3253 C.3     1  UNL1        0.1765
     40 C           8.3776   33.0602   -0.7512 C.3     1  UNL1        0.1719
     41 O           8.7621   32.1123   -1.7607 O.3     1  UNL1       -0.3794
     42 C           7.7796   32.3005    0.4330 C.3     1  UNL1        0.1964
     43 O           8.8563   31.5361    1.0153 O.3     1  UNL1       -0.3775
     44 H           8.8679   32.6205   -2.5899 H       1  UNL1        0.2105
     45 H           9.2679   31.0652    0.2602 H       1  UNL1        0.2106
@<TRIPOS>BOND
     1    26    27    1
     2    27    18    1
     3    18    19   ar
     4    18    23   ar
     5    19    20   ar
     6    20    21   ar
     7    20     1    1
     8     1     2    1
     9     1    14    1
    10     2     3   ar
    11     2     7   ar
    12     3     4   ar
    13     4     5   ar
    14     4    17    1
    15     5     6   ar
    16     5    15    1
    17     6     7   ar
    18     7     8    1
    19     8     9    1
    20     8    30    1
    21    31    32    1
    22    31    42    1
    23    31    30    1
    24    32    33    1
    25    33    34    1
    26    33    39    1
    27    34    35    1
    28    35    36    1
    29    36    38    1
    30    36    37    1
    31    38    39    1
    32    39    40    1
    33    40    41    1
    34    40    42    1
    35    41    44    1
    36    42    43    1
    37    43    45    1
    38     9    10    1
    39     9    14    1
    40    10    11    1
    41    11    12    1
    42    12    14    1
    43    12    13    2
    44    15    16    1
    45    16    17    1
    46    21    22   ar
    47    22    28    1
    48    22    23   ar
    49    28    29    1
    50    23    24    1
    51    24    25    1
#	Name:			CHEMBL446
#	Creating user name:	trannguyen
#	Creation time:		Tue Feb  8 18:26:14 2022


#	Modifying user name:	trannguyen
#	Modification time:	Tue Feb  8 18:26:14 2022

@<TRIPOS>MOLECULE
CHEMBL446
 22 23 0 0 0
SMALL
GASTEIGER

@<TRIPOS>ATOM
      1 S           4.0402   32.1321    8.9700 S.O2    1  UNL1        0.0758
      2 O           5.2060   31.3675    8.5873 O.2     1  UNL1       -0.1499
      3 O           4.1129   33.0482   10.0955 O.2     1  UNL1       -0.1499
      4 C           2.7127   30.9988    9.3146 C.ar    1  UNL1        0.1253
      5 C           2.9207   29.9223   10.1810 C.ar    1  UNL1        0.0214
      6 C           1.8598   29.0605   10.4805 C.ar    1  UNL1        0.0155
      7 C           0.5932   29.2639    9.9232 C.ar    1  UNL1        0.0416
      8 N          -0.4924   28.4778   10.3282 N.pl3   1  UNL1       -0.3570
      9 C           0.3798   30.4003    9.1370 C.ar    1  UNL1        0.0155
     10 C           1.4375   31.2527    8.8068 C.ar    1  UNL1        0.0214
     11 H          -0.2377   27.5300   10.5877 H       1  UNL1        0.1424
     12 H          -1.2749   28.4988    9.6813 H       1  UNL1        0.1424
     13 N           3.4758   33.0543    7.6868 N.pl3   1  UNL1       -0.1835
     14 H           3.6176   34.0352    7.9015 H       1  UNL1        0.1767
     15 C           6.7271   33.9965    4.3636 C.3     1  UNL1        0.0522
     16 C           5.5613   33.1831    4.8363 C.ar    1  UNL1        0.0635
     17 C           4.8957   32.3329    3.9714 C.ar    1  UNL1        0.0296
     18 C           3.7995   31.6576    4.4793 C.ar    1  UNL1        0.0635
     19 C           2.9782   30.7693    3.5939 C.3     1  UNL1        0.0522
     20 N           3.3711   31.8309    5.7450 N.ar    1  UNL1       -0.2170
     21 C           4.0586   32.7154    6.4692 C.ar    1  UNL1        0.2353
     22 N           5.1359   33.4047    6.0944 N.ar    1  UNL1       -0.2170
@<TRIPOS>BOND
     1    15    16    1
     2    16    17   ar
     3    16    22   ar
     4    17    18   ar
     5    18    19    1
     6    18    20   ar
     7    20    21   ar
     8    21    13    1
     9    21    22   ar
    10    13     1    1
    11    13    14    1
    12     1     2    2
    13     1     3    2
    14     1     4    1
    15     4     5   ar
    16     4    10   ar
    17     5     6   ar
    18     6     7   ar
    19     7     8    1
    20     7     9   ar
    21     8    11    1
    22     8    12    1
    23     9    10   ar
#	Name:			CHEMBL447
#	Creating user name:	trannguyen
#	Creation time:		Tue Feb  8 18:26:14 2022


#	Modifying user name:	trannguyen
#	Modification time:	Tue Feb  8 18:26:14 2022

@<TRIPOS>MOLECULE
CHEMBL447
 19 19 0 0 0
SMALL
GASTEIGER

@<TRIPOS>ATOM
      1 C           2.2350   30.8565    9.3423 C.3     1  UNL1        0.1419
      2 C           0.9016   30.1170    9.5308 C.2     1  UNL1        0.2370
      3 O          -0.1097   30.3335    8.8675 O.2     1  UNL1       -0.2742
      4 N           0.8302   29.1974   10.5407 N.am    1  UNL1       -0.2390
      5 C           1.8733   28.4717   11.0111 C.2     1  UNL1        0.3122
      6 O           1.7281   27.5401   11.7712 O.2     1  UNL1       -0.2520
      7 N           3.1001   28.8528   10.5711 N.am    1  UNL1       -0.2390
      8 C           3.3790   30.0668   10.0276 C.2     1  UNL1        0.2370
      9 O           4.5455   30.4553   10.0861 O.2     1  UNL1       -0.2742
     10 H          -0.0770   28.7800   10.6983 H       1  UNL1        0.1591
     11 H           3.8820   28.3756   11.0028 H       1  UNL1        0.1591
     12 C           2.1473   32.2814   10.0541 C.3     1  UNL1        0.0168
     13 C           3.2350   33.2668    9.5734 C.3     1  UNL1        0.0010
     14 C           0.7355   32.9833   10.0848 C.3     1  UNL1        0.0009
     15 C           0.8126   34.4577   10.5536 C.3     1  UNL1        0.0000
     16 C          -0.4885   35.2411   10.6690 C.3     1  UNL1        0.0000
     17 C           2.6478   30.8058    7.8334 C.3     1  UNL1        0.0434
     18 C           2.1304   31.4116    5.4532 C.2     1  UNL1       -0.0049
     19 C           1.9043   31.5656    6.7664 C.2     1  UNL1       -0.0252
@<TRIPOS>BOND
     1    18    19    2
     2    19    17    1
     3    17     1    1
     4     1    12    1
     5     1     2    1
     6     1     8    1
     7    12    13    1
     8    12    14    1
     9    14    15    1
    10    15    16    1
    11     2     3    2
    12     2     4   am
    13     4     5   am
    14     4    10    1
    15     5     6    2
    16     5     7   am
    17     7     8   am
    18     7    11    1
    19     8     9    2
#	Name:			CHEMBL44814
#	Creating user name:	trannguyen
#	Creation time:		Tue Feb  8 18:26:14 2022


#	Modifying user name:	trannguyen
#	Modification time:	Tue Feb  8 18:26:14 2022

@<TRIPOS>MOLECULE
CHEMBL44814
 5 4 0 0 0
SMALL
GASTEIGER

@<TRIPOS>ATOM
      1 CL          3.6694   33.1478    5.8659 Cl      1  UNL1       -0.0666
      2 C           2.4249   31.9761    5.3630 C.3     1  UNL1        0.2662
      3 CL          1.8562   31.0665    6.7857 Cl      1  UNL1       -0.0666
      4 CL          1.0545   32.8445    4.6265 Cl      1  UNL1       -0.0666
      5 CL          3.1196   30.8455    4.1740 Cl      1  UNL1       -0.0666
@<TRIPOS>BOND
     1     1     2    1
     2     2     3    1
     3     2     4    1
     4     2     5    1
#	Name:			CHEMBL448462
#	Creating user name:	trannguyen
#	Creation time:		Tue Feb  8 18:26:14 2022


#	Modifying user name:	trannguyen
#	Modification time:	Tue Feb  8 18:26:14 2022

@<TRIPOS>MOLECULE
CHEMBL448462
 23 22 0 0 0
SMALL
GASTEIGER

@<TRIPOS>ATOM
      1 C           4.4641   32.2375    6.3013 C.1     1  UNL1       -0.0118
      2 C           3.3078   32.0613    6.5213 C.1     1  UNL1       -0.0492
      3 C           1.9050   31.8473    6.7884 C.3     1  UNL1        0.1750
      4 O           1.2733   31.3352    5.6185 O.3     1  UNL1       -0.3722
      5 H           1.4997   31.9454    4.8954 H       1  UNL1        0.2116
      6 C           1.7033   30.8425    7.9302 C.3     1  UNL1        0.0429
      7 C           2.5300   31.1316    9.1927 C.3     1  UNL1        0.0041
      8 C           2.1725   30.2240   10.3748 C.3     1  UNL1        0.0118
      9 C           2.5324   28.7649   10.1301 C.3     1  UNL1        0.1094
     10 C           1.7816   27.8165   11.0356 C.2     1  UNL1        0.3138
     11 O           2.2635   26.9203   11.6943 O.2     1  UNL1       -0.2503
     12 O           0.4617   28.0654   11.0563 O.3     1  UNL1       -0.4802
     13 H           0.1015   27.4049   11.6850 H       1  UNL1        0.2951
     14 C           6.9494   32.6166    5.8282 C.1     1  UNL1       -0.0779
     15 C           5.7931   32.4403    6.0483 C.1     1  UNL1       -0.0141
     16 C           8.3523   32.8305    5.5613 C.3     1  UNL1        0.0770
     17 C           9.2046   32.5865    6.8199 C.3     1  UNL1        0.0140
     18 C           9.0523   31.1667    7.3938 C.3     1  UNL1        0.0010
     19 C           8.6773   31.1825    8.8793 C.3     1  UNL1        0.0000
     20 C           7.1632   31.0565    9.0856 C.3     1  UNL1        0.0000
     21 C           6.6553   32.0790   10.1065 C.3     1  UNL1        0.0000
     22 C           5.0398   33.9472    9.5825 C.3     1  UNL1        0.0000
     23 C           6.4758   33.4586    9.4726 C.3     1  UNL1        0.0000
@<TRIPOS>BOND
     1    22    23    1
     2    23    21    1
     3    21    20    1
     4    20    19    1
     5    19    18    1
     6    18    17    1
     7    17    16    1
     8    16    14    1
     9    14    15    3
    10    15     1    1
    11     1     2    3
    12     2     3    1
    13     3     4    1
    14     3     6    1
    15     4     5    1
    16     6     7    1
    17     7     8    1
    18     8     9    1
    19     9    10    1
    20    10    11    2
    21    10    12    1
    22    12    13    1
#	Name:			CHEMBL44884
#	Creating user name:	trannguyen
#	Creation time:		Tue Feb  8 18:26:14 2022


#	Modifying user name:	trannguyen
#	Modification time:	Tue Feb  8 18:26:14 2022

@<TRIPOS>MOLECULE
CHEMBL44884
 18 17 0 0 0
SMALL
GASTEIGER

@<TRIPOS>ATOM
      1 C           1.5940   31.5400    9.7876 C.3     1  UNL1        0.0859
      2 N           2.2146   30.6315   10.7546 N.3     1  UNL1       -0.2954
      3 H           3.1737   30.9248   10.9450 H       1  UNL1        0.1233
      4 CA          2.2642   29.2264   10.3031 C.3     1  UNL1        0.0837
      5 C           1.2603   28.4107   11.1529 C.3     1  UNL1        0.1527
      6 O           1.8917   27.3417   11.8589 O.3     1  UNL1       -0.3806
      7 H           1.1967   26.8409   12.2921 H       1  UNL1        0.2105
      8 C           4.8526   29.5737   10.1890 C.3     1  UNL1        0.0015
      9 C           3.6829   28.6036   10.3137 C.3     1  UNL1        0.0183
     10 C           1.7473   31.0268    8.3391 C.3     1  UNL1        0.0859
     11 N           1.3951   32.0623    7.3476 N.3     1  UNL1       -0.2954
     12 H           0.4743   31.8059    6.9833 H       1  UNL1        0.1233
     13 CA          2.3373   32.1165    6.2114 C.3     1  UNL1        0.0837
     14 C           3.2139   33.3992    6.1957 C.3     1  UNL1        0.1527
     15 O           3.9688   33.5791    7.3901 O.3     1  UNL1       -0.3806
     16 H           3.8329   32.7934    7.9380 H       1  UNL1        0.2105
     17 C           1.5447   32.0148    4.8866 C.3     1  UNL1        0.0183
     18 C           2.4133   31.7855    3.6547 C.3     1  UNL1        0.0015
@<TRIPOS>BOND
     1     8     9    1
     2     9     4    1
     3     4     5    1
     4     4     2    1
     5     5     6    1
     6     6     7    1
     7     2     1    1
     8     2     3    1
     9     1    10    1
    10    10    11    1
    11    11    13    1
    12    11    12    1
    13    13    17    1
    14    13    14    1
    15    17    18    1
    16    14    15    1
    17    15    16    1
#	Name:			CHEMBL44
#	Creating user name:	trannguyen
#	Creation time:		Tue Feb  8 18:26:14 2022


#	Modifying user name:	trannguyen
#	Modification time:	Tue Feb  8 18:26:14 2022

@<TRIPOS>MOLECULE
CHEMBL44
 23 25 0 0 0
SMALL
GASTEIGER

@<TRIPOS>ATOM
      1 O           4.1310   32.1767    8.3583 O.2     1  UNL1       -0.2863
      2 C           4.0517   31.1886    9.0781 C.ar    1  UNL1        0.2045
      3 C           5.2761   30.5971    9.6996 C.ar    1  UNL1        0.0767
      4 C           5.1117   29.5131   10.4715 C.ar    1  UNL1        0.1826
      5 O           3.9340   28.8690   10.7423 O.2     1  UNL1       -0.4500
      6 C           2.7836   29.3825   10.1984 C.ar    1  UNL1        0.1544
      7 C           1.6062   28.6984   10.5169 C.ar    1  UNL1        0.0744
      8 C           0.3972   29.1564   10.0112 C.ar    1  UNL1        0.1397
      9 O          -0.7779   28.5263   10.2930 O.3     1  UNL1       -0.5053
     10 C           0.3471   30.2817    9.1971 C.ar    1  UNL1        0.0735
     11 C           1.5271   30.9615    8.8810 C.ar    1  UNL1        0.1427
     12 O           1.4460   32.0669    8.0832 O.3     1  UNL1       -0.5052
     13 C           2.7607   30.5156    9.3789 C.ar    1  UNL1        0.1073
     14 H          -0.6008   27.7610   10.8659 H       1  UNL1        0.2922
     15 H           0.5280   32.2199    7.8089 H       1  UNL1        0.2922
     16 C           6.6200   31.1835    9.5193 C.ar    1  UNL1        0.0063
     17 C           7.1376   32.0821   10.4650 C.ar    1  UNL1        0.0033
     18 C           8.4116   32.6365   10.3075 C.ar    1  UNL1        0.0366
     19 C           9.1746   32.2914    9.1986 C.ar    1  UNL1        0.1337
     20 O          10.4210   32.8081    9.0044 O.3     1  UNL1       -0.5055
     21 C           8.6837   31.4080    8.2462 C.ar    1  UNL1        0.0366
     22 C           7.4087   30.8583    8.4032 C.ar    1  UNL1        0.0033
     23 H          10.6046   33.4425    9.7167 H       1  UNL1        0.2922
@<TRIPOS>BOND
     1     1     2    2
     2     2     3   ar
     3     2    13   ar
     4     3    16    1
     5     3     4   ar
     6    16    17   ar
     7    16    22   ar
     8    17    18   ar
     9    18    19   ar
    10    19    20    1
    11    19    21   ar
    12    20    23    1
    13    21    22   ar
    14     4     5   ar
    15     5     6   ar
    16     6     7   ar
    17     6    13   ar
    18     7     8   ar
    19     8     9    1
    20     8    10   ar
    21     9    14    1
    22    10    11   ar
    23    11    12    1
    24    11    13   ar
    25    12    15    1
#	Name:			CHEMBL450895
#	Creating user name:	trannguyen
#	Creation time:		Tue Feb  8 18:26:14 2022


#	Modifying user name:	trannguyen
#	Modification time:	Tue Feb  8 18:26:14 2022

@<TRIPOS>MOLECULE
CHEMBL450895
 78 80 0 0 0
SMALL
GASTEIGER

@<TRIPOS>ATOM
      1 C          17.4999   30.9541    6.3197 C.3     1  UNL1        0.0474
      2 C          16.8889   32.3144    5.9992 C.3     1  UNL1        0.1712
      3 O          16.8941   32.4611    4.5476 O.3     1  UNL1       -0.4521
      4 C          18.0462   32.8140    3.9111 C.2     1  UNL1        0.3194
      5 O          19.1184   33.0314    4.4595 O.2     1  UNL1       -0.2500
      6 C          17.7913   32.7860    2.4192 C.3     1  UNL1        0.1387
      7 C          18.7768   33.6228    1.5988 C.3     1  UNL1        0.1241
      8 O          18.4625   35.0153    1.7052 O.3     1  UNL1       -0.3838
      9 C          18.8300   33.2484    0.0917 C.3     1  UNL1        0.0591
     10 C          17.4900   33.3807   -0.6458 C.3     1  UNL1        0.1154
     11 O          16.5880   32.3910   -0.1358 O.3     1  UNL1       -0.3843
     12 C          17.5733   33.2240   -2.1893 C.3     1  UNL1        0.0585
     13 C          16.1895   33.4876   -2.8145 C.3     1  UNL1        0.1130
     14 O          15.2621   32.5156   -2.3137 O.3     1  UNL1       -0.3844
     15 C          16.0776   33.4454   -4.3565 C.3     1  UNL1        0.0319
     16 C          14.6601   33.9336   -4.7284 C.3     1  UNL1        0.0342
     17 C          14.0989   33.7355   -6.1527 C.3     1  UNL1        0.1374
     18 O          14.1077   32.3491   -6.4994 O.3     1  UNL1       -0.3820
     19 C          12.6135   34.2120   -6.1538 C.3     1  UNL1        0.1420
     20 O          11.8923   33.3808   -5.2173 O.3     1  UNL1       -0.3818
     21 C          11.8389   34.1231   -7.4731 C.3     1  UNL1        0.0877
     22 C          10.6265   35.0946   -7.4866 C.3     1  UNL1        0.1882
     23 O          11.1680   36.4125   -7.5316 O.3     1  UNL1       -0.3634
     24 C           9.7554   34.9545   -8.7332 C.3     1  UNL1        0.0859
     25 C           8.8361   33.7451   -8.6605 C.3     1  UNL1        0.1283
     26 O           7.8843   33.8216   -9.7324 O.3     1  UNL1       -0.3836
     27 C           8.0559   33.7200   -7.3522 C.3     1  UNL1        0.1529
     28 C           8.9687   33.9383   -6.1348 C.3     1  UNL1        0.1333
     29 C           8.1022   34.1563   -4.8616 C.3     1  UNL1        0.0645
     30 C           8.9159   34.2023   -3.5553 C.3     1  UNL1        0.1423
     31 C           8.0623   33.7859   -2.3790 C.2     1  UNL1        0.0030
     32 C           8.2449   32.6189   -1.7429 C.2     1  UNL1       -0.0022
     33 C           7.6059   32.2007   -0.5170 C.2     1  UNL1       -0.0003
     34 C           7.5284   32.9717    0.5788 C.2     1  UNL1       -0.0000
     35 C           7.1786   32.4457    1.8818 C.2     1  UNL1       -0.0000
     36 C           7.2508   33.1887    2.9968 C.2     1  UNL1       -0.0003
     37 C           7.1696   32.6218    4.3252 C.2     1  UNL1       -0.0046
     38 C           7.3217   33.3653    5.4319 C.2     1  UNL1       -0.0258
     39 C           7.4930   32.7897    6.8145 C.3     1  UNL1        0.0307
     40 C           8.7872   33.3353    7.4327 C.3     1  UNL1        0.0307
     41 C           9.2823   32.5456    8.6158 C.2     1  UNL1       -0.0258
     42 C          10.3870   31.7820    8.6383 C.2     1  UNL1       -0.0049
     43 C          11.1774   31.4846    7.4714 C.2     1  UNL1       -0.0048
     44 C          12.5023   31.6411    7.3311 C.2     1  UNL1       -0.0240
     45 C          13.5107   32.2009    8.3198 C.3     1  UNL1        0.0490
     46 C          13.1911   33.6383    8.7461 C.3     1  UNL1        0.0072
     47 C          14.9998   32.0105    7.8426 C.3     1  UNL1        0.1178
     48 O          15.2576   30.5971    7.8958 O.3     1  UNL1       -0.3840
     49 C          15.3937   32.5168    6.4202 C.3     1  UNL1        0.0673
     50 C          15.0480   34.0002    6.2113 C.3     1  UNL1        0.0062
     51 O           9.8077   35.0837   -6.3237 O.3     1  UNL1       -0.3361
     52 H          17.4993   35.1308    1.6288 H       1  UNL1        0.2104
     53 H          16.9392   31.5148   -0.3874 H       1  UNL1        0.2103
     54 H          15.3062   32.5674   -1.3346 H       1  UNL1        0.2103
     55 H          15.0362   32.0574   -6.5030 H       1  UNL1        0.2104
     56 H          12.2569   32.4806   -5.3621 H       1  UNL1        0.2104
     57 H          10.8234   36.8074   -6.7070 H       1  UNL1        0.2128
     58 H           8.3882   33.8308  -10.5683 H       1  UNL1        0.2104
     59 H          15.0255   30.2795    8.7854 H       1  UNL1        0.2104
     60 C           7.3627   32.3761   -7.2516 C.2     1  UNL1        0.3181
     61 O           7.8705   31.3085   -7.5617 O.2     1  UNL1       -0.2501
     62 O           6.0962   32.4642   -6.7855 O.3     1  UNL1       -0.4801
     63 H           5.7845   33.3938   -6.7409 H       1  UNL1        0.2951
     64 O           9.3913   35.5363   -3.3557 O.3     1  UNL1       -0.3266
     65 C           8.6126   36.3990   -2.5136 C.3     1  UNL1        0.2647
     66 O           7.9790   37.3615   -3.3726 O.3     1  UNL1       -0.3286
     67 C           7.1571   38.3084   -2.6778 C.3     1  UNL1        0.1460
     68 C           6.5403   39.2317   -3.7226 C.3     1  UNL1        0.0348
     69 C           7.9730   39.1038   -1.6496 C.3     1  UNL1        0.1541
     70 O           7.1607   40.0206   -0.9106 O.3     1  UNL1       -0.3805
     71 C           8.6184   38.1206   -0.6588 C.3     1  UNL1        0.1127
     72 N           9.4386   38.8904    0.3151 N.3     1  UNL1       -0.3181
     73 C           9.4618   37.1049   -1.4322 C.3     1  UNL1        0.1835
     74 O          10.5362   37.8316   -2.0372 O.3     1  UNL1       -0.3783
     75 H           7.7264   40.2628   -0.1474 H       1  UNL1        0.2105
     76 H          10.2869   39.1464   -0.2116 H       1  UNL1        0.1190
     77 H           9.8109   38.2316    1.0035 H       1  UNL1        0.1190
     78 H          11.1222   37.1519   -2.4357 H       1  UNL1        0.2106
@<TRIPOS>BOND
     1     1     2    1
     2     2     3    1
     3     2    49    1
     4     3     4    1
     5     4     5    2
     6     4     6    1
     7     6     7    1
     8     7     9    1
     9     7     8    1
    10     8    52    1
    11     9    10    1
    12    10    12    1
    13    10    11    1
    14    11    53    1
    15    12    13    1
    16    13    15    1
    17    13    14    1
    18    14    54    1
    19    15    16    1
    20    16    17    1
    21    17    18    1
    22    17    19    1
    23    18    55    1
    24    19    21    1
    25    19    20    1
    26    20    56    1
    27    21    22    1
    28    22    23    1
    29    22    24    1
    30    22    51    1
    31    23    57    1
    32    24    25    1
    33    25    26    1
    34    25    27    1
    35    26    58    1
    36    27    28    1
    37    27    60    1
    38    60    61    2
    39    60    62    1
    40    62    63    1
    41    28    29    1
    42    28    51    1
    43    29    30    1
    44    30    64    1
    45    30    31    1
    46    65    66    1
    47    65    73    1
    48    65    64    1
    49    66    67    1
    50    67    68    1
    51    67    69    1
    52    69    71    1
    53    69    70    1
    54    70    75    1
    55    71    72    1
    56    71    73    1
    57    72    76    1
    58    72    77    1
    59    73    74    1
    60    74    78    1
    61    31    32    2
    62    32    33    1
    63    33    34    2
    64    34    35    1
    65    35    36    2
    66    36    37    1
    67    37    38    2
    68    38    39    1
    69    39    40    1
    70    40    41    1
    71    41    42    2
    72    42    43    1
    73    43    44    2
    74    44    45    1
    75    45    47    1
    76    45    46    1
    77    47    48    1
    78    47    49    1
    79    48    59    1
    80    49    50    1
#	Name:			CHEMBL451
#	Creating user name:	trannguyen
#	Creation time:		Tue Feb  8 18:26:14 2022


#	Modifying user name:	trannguyen
#	Modification time:	Tue Feb  8 18:26:14 2022

@<TRIPOS>MOLECULE
CHEMBL451
 22 24 0 0 0
SMALL
GASTEIGER

@<TRIPOS>ATOM
      1 C           5.9932   31.4400    9.6430 C.2     1  UNL1        0.3783
      2 N           5.5125   30.2297    9.5844 N.2     1  UNL1       -0.0372
      3 C           4.1239   30.0139    9.5445 C.ar    1  UNL1        0.1988
      4 C           3.6392   28.9914   10.3707 C.ar    1  UNL1        0.0476
      5 C           2.2748   28.7092   10.4472 C.ar    1  UNL1        0.0152
      6 C           1.3764   29.4527    9.6890 C.ar    1  UNL1        0.0581
      7 CL         -0.3083   29.1258    9.8048 Cl      1  UNL1       -0.0822
      8 C           1.8304   30.4597    8.8386 C.ar    1  UNL1        0.0211
      9 C           3.2047   30.7295    8.7453 C.ar    1  UNL1        0.1080
     10 C           3.6539   31.8017    7.8035 C.2     1  UNL1        0.2355
     11 N           4.5532   32.6800    8.2343 N.4     1  UNL1       -0.1718
     12 O           5.0269   33.5966    7.4784 O.co2   1  UNL1       -0.6232
     13 C           5.0922   32.6514    9.6065 C.3     1  UNL1        0.4455
     14 C           3.1091   31.8435    6.4066 C.ar    1  UNL1        0.0645
     15 C           1.8576   32.3993    6.1144 C.ar    1  UNL1        0.0059
     16 C           1.3802   32.4328    4.8005 C.ar    1  UNL1        0.0002
     17 C           2.1320   31.8790    3.7682 C.ar    1  UNL1        0.0000
     18 C           3.3677   31.3012    4.0471 C.ar    1  UNL1        0.0002
     19 C           3.8602   31.2943    5.3561 C.ar    1  UNL1        0.0059
     20 C           8.2376   31.5161    8.6049 C.3     1  UNL1        0.2503
     21 N           7.3482   31.6769    9.7324 N.pl3   1  UNL1       -0.2130
     22 H           7.6368   32.3948   10.3922 H       1  UNL1        0.2923
@<TRIPOS>UNITY_ATOM_ATTR
11 1
charge 1
12 1
charge -1
@<TRIPOS>BOND
     1    20    21    1
     2    21     1    1
     3    21    22    1
     4     1     2    2
     5     1    13    1
     6     2     3    1
     7     3     4   ar
     8     3     9   ar
     9     4     5   ar
    10     5     6   ar
    11     6     7    1
    12     6     8   ar
    13     8     9   ar
    14     9    10    1
    15    10    14    1
    16    10    11    2
    17    14    15   ar
    18    14    19   ar
    19    15    16   ar
    20    16    17   ar
    21    17    18   ar
    22    18    19   ar
    23    11    12    1
    24    11    13    1
#	Name:			CHEMBL45245
#	Creating user name:	trannguyen
#	Creation time:		Tue Feb  8 18:26:14 2022


#	Modifying user name:	trannguyen
#	Modification time:	Tue Feb  8 18:26:14 2022

@<TRIPOS>MOLECULE
CHEMBL45245
 16 18 0 0 0
SMALL
GASTEIGER

@<TRIPOS>ATOM
      1 O           2.2610   26.9210   11.6070 O.2     1  UNL1       -0.2672
      2 C           2.6239   27.9233   10.9997 C.ar    1  UNL1        0.2576
      3 N           3.9498   28.2728   10.9444 N.ar    1  UNL1       -0.3210
      4 H           4.5826   27.6528   11.4320 H       1  UNL1        0.1689
      5 C           4.4421   29.3981   10.2737 C.ar    1  UNL1        0.0588
      6 C           5.8204   29.6357   10.2983 C.ar    1  UNL1        0.0170
      7 C           6.3442   30.7456    9.6418 C.ar    1  UNL1        0.0015
      8 C           5.4917   31.6114    8.9652 C.ar    1  UNL1        0.0001
      9 C           4.1134   31.3693    8.9433 C.ar    1  UNL1        0.0014
     10 C           3.5552   30.2566    9.5970 C.ar    1  UNL1        0.0158
     11 C           2.1091   29.9458    9.6107 C.ar    1  UNL1        0.0060
     12 C           1.1368   30.7344    8.9674 C.ar    1  UNL1        0.0002
     13 C          -0.2221   30.3990    9.0082 C.ar    1  UNL1        0.0000
     14 C          -0.6451   29.2659    9.6939 C.ar    1  UNL1        0.0002
     15 C           0.2916   28.4655   10.3402 C.ar    1  UNL1        0.0047
     16 C           1.6536   28.8030   10.2981 C.ar    1  UNL1        0.0560
@<TRIPOS>BOND
     1     1     2    2
     2     2     3   ar
     3     2    16   ar
     4     3     4    1
     5     3     5   ar
     6     5     6   ar
     7     5    10   ar
     8     6     7   ar
     9     7     8   ar
    10     8     9   ar
    11     9    10   ar
    12    10    11   ar
    13    11    12   ar
    14    11    16   ar
    15    12    13   ar
    16    13    14   ar
    17    14    15   ar
    18    15    16   ar
#	Name:			CHEMBL452861
#	Creating user name:	trannguyen
#	Creation time:		Tue Feb  8 18:26:14 2022


#	Modifying user name:	trannguyen
#	Modification time:	Tue Feb  8 18:26:14 2022

@<TRIPOS>MOLECULE
CHEMBL452861
 21 22 0 0 0
SMALL
GASTEIGER

@<TRIPOS>ATOM
      1 O           3.8390   32.3063    8.6084 O.3     1  UNL1       -0.4728
      2 C           3.8378   31.0542    9.2081 C.ar    1  UNL1        0.1386
      3 C           5.0294   30.4477    9.6345 C.ar    1  UNL1        0.0369
      4 C           5.0309   29.1959   10.2281 C.ar    1  UNL1        0.0031
      5 C           3.8278   28.5451   10.4555 C.ar    1  UNL1        0.0002
      6 C           2.6144   29.1233   10.0816 C.ar    1  UNL1        0.0029
      7 C           1.4254   28.4333   10.3501 C.ar    1  UNL1        0.0001
      8 C           0.1941   28.9431    9.9636 C.ar    1  UNL1        0.0000
      9 C           0.1455   30.1560    9.2826 C.ar    1  UNL1        0.0001
     10 C           1.3230   30.8691    9.0177 C.ar    1  UNL1        0.0030
     11 C           2.5912   30.3917    9.4234 C.ar    1  UNL1        0.0340
     12 C           4.0051   33.3879    9.5517 C.3     1  UNL1        0.2358
     13 C           3.5659   34.7314    8.9674 C.3     1  UNL1        0.1697
     14 O           3.0517   34.5544    7.6388 O.3     1  UNL1       -0.3793
     15 H           3.7001   33.9928    7.1739 H       1  UNL1        0.2106
     16 C           2.4752   35.3836    9.8504 C.3     1  UNL1        0.1020
     17 N           2.0676   36.7346    9.4154 N.3     1  UNL1       -0.2964
     18 H           2.8043   37.3872    9.7005 H       1  UNL1        0.1233
     19 C          -0.0435   36.0349   10.5541 C.3     1  UNL1        0.0171
     20 C           0.7759   37.1865    9.9658 C.3     1  UNL1        0.0541
     21 C           0.9238   38.3211   10.9833 C.3     1  UNL1        0.0171
@<TRIPOS>BOND
     1    19    20    1
     2    20    21    1
     3    20    17    1
     4    17    16    1
     5    17    18    1
     6    13    14    1
     7    13    12    1
     8    13    16    1
     9    14    15    1
    10    12     1    1
    11     1     2    1
    12     2     3   ar
    13     2    11   ar
    14     3     4   ar
    15     4     5   ar
    16     5     6   ar
    17     6     7   ar
    18     6    11   ar
    19     7     8   ar
    20     8     9   ar
    21     9    10   ar
    22    10    11   ar
#	Name:			CHEMBL452
#	Creating user name:	trannguyen
#	Creation time:		Tue Feb  8 18:26:14 2022


#	Modifying user name:	trannguyen
#	Modification time:	Tue Feb  8 18:26:14 2022

@<TRIPOS>MOLECULE
CHEMBL452
 23 25 0 0 0
SMALL
GASTEIGER

@<TRIPOS>ATOM
      1 O           7.0247   34.4884    9.9572 O.2     1  UNL1       -0.2726
      2 C           6.1135   33.9582    9.3279 C.2     1  UNL1        0.2509
      3 C           4.6543   34.0951    9.7261 C.3     1  UNL1        0.2101
      4 N           4.0856   32.7851   10.0180 N.2     1  UNL1       -0.2605
      5 C           3.8994   31.9378    9.0621 C.2     1  UNL1        0.0786
      6 C           4.2254   32.2161    7.6298 C.ar    1  UNL1        0.0323
      7 C           3.3122   31.8093    6.6423 C.ar    1  UNL1        0.0226
      8 C           3.6938   31.8382    5.2945 C.ar    1  UNL1        0.0920
      9 C           4.9721   32.2716    4.9250 C.ar    1  UNL1        0.0212
     10 C           5.8564   32.7220    5.9077 C.ar    1  UNL1        0.0163
     11 C           5.4758   32.7441    7.2570 C.ar    1  UNL1        0.0519
     12 N           6.3961   33.3131    8.1495 N.am    1  UNL1       -0.2822
     13 H           7.3568   33.4473    7.8575 H       1  UNL1        0.1549
     14 C           3.3029   30.6099    9.4583 C.ar    1  UNL1        0.0279
     15 C           4.2170   29.5627    9.6852 C.ar    1  UNL1        0.0023
     16 C           3.7800   28.2887   10.0533 C.ar    1  UNL1        0.0001
     17 C           2.4213   28.0420   10.2119 C.ar    1  UNL1        0.0009
     18 C           1.5002   29.0604    9.9690 C.ar    1  UNL1        0.0114
     19 C           1.9297   30.3348    9.5691 C.ar    1  UNL1        0.0591
     20 CL          0.6796   31.4559    9.1542 Cl      1  UNL1       -0.0822
     21 N           2.7600   31.3726    4.2617 N.pl3   1  UNL1       -0.1853
     22 O           1.5929   31.7853    4.3163 O.2     1  UNL1       -0.1725
     23 O           3.1954   30.5997    3.3971 O.co2   1  UNL1       -0.7770
@<TRIPOS>UNITY_ATOM_ATTR
23 1
charge -1
@<TRIPOS>BOND
     1     1     2    2
     2     2     3    1
     3     2    12   am
     4     3     4    1
     5     4     5    2
     6     5    14    1
     7     5     6    1
     8    14    15   ar
     9    14    19   ar
    10    15    16   ar
    11    16    17   ar
    12    17    18   ar
    13    18    19   ar
    14    19    20    1
    15     6     7   ar
    16     6    11   ar
    17     7     8   ar
    18     8    21    1
    19     8     9   ar
    20    21    22    2
    21    21    23    1
    22     9    10   ar
    23    10    11   ar
    24    11    12    1
    25    12    13    1
#	Name:			CHEMBL4537788
#	Creating user name:	trannguyen
#	Creation time:		Tue Feb  8 18:26:14 2022


#	Modifying user name:	trannguyen
#	Modification time:	Tue Feb  8 18:26:14 2022

@<TRIPOS>MOLECULE
CHEMBL4537788
 45 50 0 0 0
SMALL
GASTEIGER

@<TRIPOS>ATOM
      1 C           7.2101   32.3378    3.7486 C.ar    1  UNL1        0.0531
      2 C           5.8679   31.9222    3.7996 C.ar    1  UNL1        0.0058
      3 C           5.2072   31.8285    5.0226 C.ar    1  UNL1        0.0160
      4 C           5.9018   32.1470    6.1788 C.ar    1  UNL1        0.0648
      5 C           7.2453   32.5072    6.1534 C.ar    1  UNL1       -0.0061
      6 C           7.9093   32.6198    4.9319 C.ar    1  UNL1        0.0015
      7 C           7.7837   32.7777    7.5496 C.3     1  UNL1        0.0419
      8 C           9.1331   32.0245    7.7353 C.3     1  UNL1        0.0311
      9 C           9.8160   32.2278    9.0791 C.3     1  UNL1        0.1512
     10 S          10.1591   33.9394    9.4047 S.O2    1  UNL1       -0.0100
     11 O          10.4157   34.0727   10.8241 O.2     1  UNL1       -0.1730
     12 O          11.1165   34.4033    8.4207 O.2     1  UNL1       -0.1730
     13 C           8.5918   34.7071    9.0632 C.3     1  UNL1        0.1512
     14 C           8.0438   34.3020    7.7010 C.3     1  UNL1        0.0311
     15 C           6.5420   32.2940    8.4436 C.3     1  UNL1        0.0997
     16 N           5.3535   32.1723    7.5030 N.pl3   1  UNL1       -0.1923
     17 O           8.9877   33.0332    2.3624 O.2     1  UNL1       -0.2701
     18 C           7.9113   32.4571    2.4421 C.2     1  UNL1        0.2461
     19 N           7.2567   31.8966    1.3713 N.am    1  UNL1       -0.2956
     20 H           6.2676   31.6916    1.4452 H       1  UNL1        0.1501
     21 C           7.7904   31.9812    0.0275 C.3     1  UNL1        0.1369
     22 C           7.8354   33.4212   -0.4313 C.ar    1  UNL1        0.0893
     23 N           6.6711   34.1237   -0.2710 N.ar    1  UNL1       -0.2457
     24 C           6.6374   35.4141   -0.6811 C.ar    1  UNL1        0.1024
     25 C           7.7091   36.0586   -1.2739 C.ar    1  UNL1        0.0913
     26 C           8.8866   35.3228   -1.4493 C.ar    1  UNL1        0.0181
     27 C           8.9583   33.9940   -1.0264 C.ar    1  UNL1        0.0728
     28 CL         10.4309   33.1430   -1.2933 Cl      1  UNL1       -0.0810
     29 C           7.6105   37.4858   -1.7146 C.3     1  UNL1        0.4200
     30 F           7.7849   37.6587   -3.0529 F       1  UNL1       -0.1658
     31 F           6.4013   38.0360   -1.4198 F       1  UNL1       -0.1658
     32 F           8.5386   38.2776   -1.1111 F       1  UNL1       -0.1658
     33 C           6.7469   30.9363    9.1000 C.3     1  UNL1        0.0203
     34 C           5.6142   30.1717    9.7505 C.3     1  UNL1        0.0018
     35 C           6.6744   30.7912   10.6062 C.3     1  UNL1        0.0018
     36 S           4.1236   33.3804    7.6574 S.O2    1  UNL1        0.0765
     37 O           4.4702   34.2429    8.7756 O.2     1  UNL1       -0.1497
     38 O           3.8310   33.9479    6.3579 O.2     1  UNL1       -0.1497
     39 C           2.6692   32.4703    8.1399 C.ar    1  UNL1        0.1256
     40 C           1.9327   32.9091    9.2487 C.ar    1  UNL1        0.0225
     41 C           0.8597   32.1388    9.6999 C.ar    1  UNL1        0.0310
     42 C           0.5453   30.9494    9.0488 C.ar    1  UNL1        0.1402
     43 F          -0.4776   30.2073    9.4910 F       1  UNL1       -0.2042
     44 C           1.2871   30.5070    7.9571 C.ar    1  UNL1        0.0310
     45 C           2.3662   31.2644    7.5053 C.ar    1  UNL1        0.0225
@<TRIPOS>BOND
     1    17    18    2
     2    18    19   am
     3    18     1    1
     4    19    21    1
     5    19    20    1
     6    21    22    1
     7    22    23   ar
     8    22    27   ar
     9    23    24   ar
    10    24    25   ar
    11    25    29    1
    12    25    26   ar
    13    29    30    1
    14    29    31    1
    15    29    32    1
    16    26    27   ar
    17    27    28    1
    18     1     2   ar
    19     1     6   ar
    20     2     3   ar
    21     3     4   ar
    22     4     5   ar
    23     4    16    1
    24     5     6   ar
    25     5     7    1
    26     7     8    1
    27     7    14    1
    28     7    15    1
    29     8     9    1
    30     9    10    1
    31    10    11    2
    32    10    12    2
    33    10    13    1
    34    13    14    1
    35    15    16    1
    36    15    33    1
    37    33    34    1
    38    33    35    1
    39    34    35    1
    40    16    36    1
    41    36    37    2
    42    36    38    2
    43    36    39    1
    44    39    40   ar
    45    39    45   ar
    46    40    41   ar
    47    41    42   ar
    48    42    43    1
    49    42    44   ar
    50    44    45   ar
#	Name:			CHEMBL453
#	Creating user name:	trannguyen
#	Creation time:		Tue Feb  8 18:26:14 2022


#	Modifying user name:	trannguyen
#	Modification time:	Tue Feb  8 18:26:14 2022

@<TRIPOS>MOLECULE
CHEMBL453
 21 22 0 0 0
SMALL
GASTEIGER

@<TRIPOS>ATOM
      1 S           4.1095   32.3183    8.9494 S.O2    1  UNL1        0.0758
      2 O           5.1331   32.1320    7.9517 O.2     1  UNL1       -0.1499
      3 O           4.3309   33.0804   10.1645 O.2     1  UNL1       -0.1499
      4 C           3.5475   30.7047    9.4337 C.ar    1  UNL1        0.1253
      5 C           2.1817   30.4157    9.4371 C.ar    1  UNL1        0.0214
      6 C           1.7512   29.1393    9.8058 C.ar    1  UNL1        0.0155
      7 C           2.6679   28.1671   10.2182 C.ar    1  UNL1        0.0416
      8 N           2.2366   26.8603   10.4741 N.pl3   1  UNL1       -0.3570
      9 C           4.0355   28.4546   10.1451 C.ar    1  UNL1        0.0155
     10 C           4.4819   29.7264    9.7757 C.ar    1  UNL1        0.0214
     11 H           1.2791   26.8044   10.8092 H       1  UNL1        0.1424
     12 H           2.8726   26.3279   11.0601 H       1  UNL1        0.1424
     13 N           2.6968   32.9529    8.2270 N.pl3   1  UNL1       -0.1831
     14 H           2.5461   33.8558    8.6820 H       1  UNL1        0.1768
     15 C           2.7885   32.7872    3.2194 C.3     1  UNL1        0.0554
     16 C           2.9988   33.1236    4.6476 C.ar    1  UNL1        0.0984
     17 N           3.4702   34.3308    4.9829 N.ar    1  UNL1       -0.0801
     18 O           3.4133   34.3815    6.3629 O.2     1  UNL1       -0.3376
     19 C           2.9515   33.1978    6.8433 C.ar    1  UNL1        0.2408
     20 C           2.6883   32.3434    5.7970 C.ar    1  UNL1        0.0478
     21 C           2.1374   30.9715    5.8322 C.3     1  UNL1        0.0371
@<TRIPOS>BOND
     1    15    16    1
     2    16    17   ar
     3    16    20   ar
     4    17    18   ar
     5    18    19   ar
     6    19    13    1
     7    19    20   ar
     8    13     1    1
     9    13    14    1
    10     1     2    2
    11     1     3    2
    12     1     4    1
    13     4     5   ar
    14     4    10   ar
    15     5     6   ar
    16     6     7   ar
    17     7     8    1
    18     7     9   ar
    19     8    11    1
    20     8    12    1
    21     9    10   ar
    22    20    21    1
#	Name:			CHEMBL4565242
#	Creating user name:	trannguyen
#	Creation time:		Tue Feb  8 18:26:14 2022


#	Modifying user name:	trannguyen
#	Modification time:	Tue Feb  8 18:26:14 2022

@<TRIPOS>MOLECULE
CHEMBL4565242
 71 76 0 0 0
SMALL
GASTEIGER

@<TRIPOS>ATOM
      1 C          10.4494   30.8889    8.4949 C.3     1  UNL1        0.1149
      2 O          10.8705   29.5505    8.7102 O.3     1  UNL1       -0.3843
      3 H          10.3437   29.1893    9.4443 H       1  UNL1        0.2103
      4 C          11.6543   31.7227    8.0926 C.3     1  UNL1        0.0591
      5 C          12.9929   31.1161    8.4869 C.3     1  UNL1        0.1241
      6 O          13.3496   30.2628    7.3910 O.3     1  UNL1       -0.3838
      7 H          13.5045   30.8153    6.6048 H       1  UNL1        0.2104
      8 C          14.0609   32.1733    8.7304 C.3     1  UNL1        0.1387
      9 C          15.1790   31.9340    7.7679 C.2     1  UNL1        0.3198
     10 O          16.1445   31.2346    8.0390 O.2     1  UNL1       -0.2500
     11 O          14.8975   32.5719    6.5953 O.3     1  UNL1       -0.4416
     12 C          15.4966   33.8641    6.3467 C.3     1  UNL1        0.2573
     13 N          12.8059   36.2319    6.0167 N.ar    1  UNL1       -0.2278
     14 C          13.2232   35.0498    6.5328 C.ar    1  UNL1        0.1170
     15 C          14.5178   34.9414    6.0840 C.ar    1  UNL1        0.1446
     16 N          14.8330   36.0605    5.3479 N.ar    1  UNL1       -0.1294
     17 N          13.7730   36.8571    5.3321 N.ar    1  UNL1       -0.0639
     18 C          11.5552   36.8900    6.2585 C.3     1  UNL1        0.1613
     19 C          11.5263   37.4599    7.6595 C.3     1  UNL1        0.1712
     20 O          10.6910   36.6209    8.4403 O.3     1  UNL1       -0.3271
     21 C          11.8331   37.4205   10.4370 C.3     1  UNL1        0.1579
     22 C          11.3223   36.1745    9.6386 C.3     1  UNL1        0.2564
     23 O          10.5179   35.3000   10.4431 O.3     1  UNL1       -0.3265
     24 C           9.4518   35.8976   11.2001 C.3     1  UNL1        0.1760
     25 C           9.9844   37.0162   12.1067 C.3     1  UNL1        0.1686
     26 O           8.9947   37.6877   12.8820 O.3     1  UNL1       -0.3794
     27 C          10.7525   38.0632   11.3134 C.3     1  UNL1        0.1625
     28 O           9.8922   38.9189   10.5652 O.3     1  UNL1       -0.3801
     29 H           8.1382   37.5037   12.4402 H       1  UNL1        0.2105
     30 H           9.3372   39.3203   11.2556 H       1  UNL1        0.2105
     31 C          15.2167   37.1941   12.1982 C.3     1  UNL1        0.0946
     32 C          14.1852   37.7575   11.2522 C.2     1  UNL1        0.2231
     33 O          14.4075   38.7658   10.5847 O.2     1  UNL1       -0.2751
     34 N          12.9934   37.0494   11.2637 N.am    1  UNL1       -0.2994
     35 H          12.8780   36.2155   11.8276 H       1  UNL1        0.1496
     36 C           8.2418   36.2916   10.3354 C.3     1  UNL1        0.1693
     37 O           7.0626   36.3836   11.1293 O.3     1  UNL1       -0.3794
     38 H           6.3798   36.7570   10.5419 H       1  UNL1        0.2105
     39 C           9.3750   30.9391    7.4158 C.3     1  UNL1        0.0538
     40 C           8.7008   32.3108    7.3184 C.3     1  UNL1        0.1082
     41 N           7.2447   32.2335    7.3860 N.ar    1  UNL1       -0.3304
     42 C           6.4291   32.3900    6.2731 C.ar    1  UNL1        0.0597
     43 C           5.1070   32.3646    6.7209 C.ar    1  UNL1        0.0212
     44 C           5.1304   31.9680    8.1179 C.ar    1  UNL1        0.0667
     45 C           6.4847   31.9810    8.5176 C.ar    1  UNL1        0.0410
     46 C           6.9835   32.5127    4.9118 C.ar    1  UNL1        0.0159
     47 C           7.7027   33.6434    4.5067 C.ar    1  UNL1        0.0037
     48 C           8.1465   33.7534    3.1845 C.ar    1  UNL1        0.0297
     49 C           7.8846   32.7307    2.2775 C.ar    1  UNL1        0.1401
     50 F           8.2988   32.8489    1.0093 F       1  UNL1       -0.2042
     51 C           7.1932   31.5916    2.6652 C.ar    1  UNL1        0.0297
     52 C           6.7348   31.4880    3.9782 C.ar    1  UNL1        0.0037
     53 C           3.9413   32.6390    5.8654 C.ar    1  UNL1        0.0016
     54 C           3.1421   31.5803    5.4063 C.ar    1  UNL1        0.0000
     55 C           2.1302   31.7985    4.4668 C.ar    1  UNL1        0.0000
     56 C           1.8353   33.0919    4.0478 C.ar    1  UNL1        0.0000
     57 C           2.5568   34.1634    4.5609 C.ar    1  UNL1        0.0000
     58 C           3.6217   33.9323    5.4342 C.ar    1  UNL1        0.0000
     59 C           3.9933   31.6296    9.0317 C.2     1  UNL1        0.2506
     60 O           3.6375   32.4088    9.9003 O.2     1  UNL1       -0.2698
     61 N           3.4109   30.3783    8.8376 N.am    1  UNL1       -0.2803
     62 H           3.8188   29.7921    8.1216 H       1  UNL1        0.1552
     63 C           2.3771   29.7766    9.6071 C.ar    1  UNL1        0.0505
     64 C           2.6039   28.8931   10.6670 C.ar    1  UNL1        0.0147
     65 C           1.5502   28.1647   11.2318 C.ar    1  UNL1        0.0013
     66 C           0.2466   28.3532   10.7848 C.ar    1  UNL1        0.0001
     67 C          -0.0107   29.3212    9.8193 C.ar    1  UNL1        0.0013
     68 C           1.0470   30.0308    9.2343 C.ar    1  UNL1        0.0147
     69 C           7.0589   31.7273    9.9149 C.3     1  UNL1        0.0385
     70 C           6.9236   32.9493   10.8219 C.3     1  UNL1        0.0062
     71 C           6.5687   30.4573   10.6051 C.3     1  UNL1        0.0062
@<TRIPOS>BOND
     1    31    32    1
     2    32    33    2
     3    32    34   am
     4    34    21    1
     5    34    35    1
     6    21    22    1
     7    21    27    1
     8    22    23    1
     9    22    20    1
    10    20    19    1
    11    19    18    1
    12    18    13    1
    13    13    14   ar
    14    13    17   ar
    15    14    15   ar
    16    15    12    1
    17    15    16   ar
    18    12    11    1
    19    11     9    1
    20     9    10    2
    21     9     8    1
    22     5     6    1
    23     5     4    1
    24     5     8    1
    25     6     7    1
    26     1     2    1
    27     1    39    1
    28     1     4    1
    29     2     3    1
    30    39    40    1
    31    40    41    1
    32    41    42   ar
    33    41    45   ar
    34    42    46    1
    35    42    43   ar
    36    46    47   ar
    37    46    52   ar
    38    47    48   ar
    39    48    49   ar
    40    49    50    1
    41    49    51   ar
    42    51    52   ar
    43    43    53    1
    44    43    44   ar
    45    53    54   ar
    46    53    58   ar
    47    54    55   ar
    48    55    56   ar
    49    56    57   ar
    50    57    58   ar
    51    44    59    1
    52    44    45   ar
    53    59    60    2
    54    59    61   am
    55    61    63    1
    56    61    62    1
    57    63    64   ar
    58    63    68   ar
    59    64    65   ar
    60    65    66   ar
    61    66    67   ar
    62    67    68   ar
    63    45    69    1
    64    69    70    1
    65    69    71    1
    66    16    17   ar
    67    23    24    1
    68    24    36    1
    69    24    25    1
    70    36    37    1
    71    37    38    1
    72    25    26    1
    73    25    27    1
    74    26    29    1
    75    27    28    1
    76    28    30    1
#	Name:			CHEMBL456807
#	Creating user name:	trannguyen
#	Creation time:		Tue Feb  8 18:26:14 2022


#	Modifying user name:	trannguyen
#	Modification time:	Tue Feb  8 18:26:14 2022

@<TRIPOS>MOLECULE
CHEMBL456807
 11 11 0 0 0
SMALL
GASTEIGER

@<TRIPOS>ATOM
      1 C           1.6987   28.5589   10.5836 C.ar    1  UNL1        0.0578
      2 C           2.6104   27.4973   10.4863 C.ar    1  UNL1        0.0155
      3 C           3.9319   27.7170   10.0858 C.ar    1  UNL1        0.0013
      4 C           4.3681   29.0084    9.8014 C.ar    1  UNL1        0.0001
      5 C           3.4875   30.0792    9.9300 C.ar    1  UNL1        0.0013
      6 C           2.1668   29.8553   10.3305 C.ar    1  UNL1        0.0155
      7 N          -0.6952   28.6419   10.2255 N.3     1  UNL1       -0.2565
      8 N           0.3869   28.3005   11.0528 N.pl3   1  UNL1       -0.2818
      9 H          -1.5724   28.6160   10.7479 H       1  UNL1        0.1404
     10 H          -0.7850   27.9776    9.4538 H       1  UNL1        0.1404
     11 H           0.3334   27.4015   11.5373 H       1  UNL1        0.1660
@<TRIPOS>BOND
     1     7     8    1
     2     7     9    1
     3     7    10    1
     4     8     1    1
     5     8    11    1
     6     1     2   ar
     7     1     6   ar
     8     2     3   ar
     9     3     4   ar
    10     4     5   ar
    11     5     6   ar
#	Name:			CHEMBL456
#	Creating user name:	trannguyen
#	Creation time:		Tue Feb  8 18:26:14 2022


#	Modifying user name:	trannguyen
#	Modification time:	Tue Feb  8 18:26:14 2022

@<TRIPOS>MOLECULE
CHEMBL456
 20 20 0 0 0
SMALL
GASTEIGER

@<TRIPOS>ATOM
      1 C           3.4642   32.2770    7.0957 C.ar    1  UNL1        0.0502
      2 C           2.3196   31.5380    7.4486 C.ar    1  UNL1        0.0072
      3 C           2.3065   30.6898    8.5550 C.ar    1  UNL1        0.0380
      4 C           3.4192   30.5920    9.3876 C.ar    1  UNL1        0.1506
      5 C           4.6007   31.2556    8.9995 C.ar    1  UNL1        0.1021
      6 CL          6.0235   31.0581    9.9864 Cl      1  UNL1       -0.0782
      7 C           4.6422   32.0470    7.8223 C.ar    1  UNL1        0.0742
      8 CL          6.1883   32.5538    7.2068 Cl      1  UNL1       -0.0812
      9 C           3.3028   33.1549    5.8982 C.2     1  UNL1        0.1925
     10 O           3.2205   34.3677    6.1070 O.2     1  UNL1       -0.2869
     11 C           2.2129   32.1964    3.8165 C.2     1  UNL1       -0.0013
     12 C           3.2907   32.6622    4.4725 C.2     1  UNL1        0.0168
     13 C           4.6372   32.6884    3.7722 C.3     1  UNL1        0.0296
     14 C           5.3915   31.3626    3.8251 C.3     1  UNL1        0.0051
     15 O           3.4248   29.8793   10.5681 O.3     1  UNL1       -0.4629
     16 C           3.5701   28.4584   10.4557 C.3     1  UNL1        0.3139
     17 C           2.4612   27.6985   11.1527 C.2     1  UNL1        0.3589
     18 O           1.9417   28.0892   12.2025 O.2     1  UNL1       -0.2461
     19 O           2.1291   26.5403   10.5685 O.3     1  UNL1       -0.4776
     20 H           2.6665   26.3926    9.7500 H       1  UNL1        0.2952
@<TRIPOS>BOND
     1    11    12    2
     2    12    13    1
     3    12     9    1
     4    13    14    1
     5     9    10    2
     6     9     1    1
     7     1     2   ar
     8     1     7   ar
     9     2     3   ar
    10     3     4   ar
    11     4    15    1
    12     4     5   ar
    13    15    16    1
    14    16    17    1
    15    17    18    2
    16    17    19    1
    17    19    20    1
    18     5     6    1
    19     5     7   ar
    20     7     8    1
#	Name:			CHEMBL457
#	Creating user name:	trannguyen
#	Creation time:		Tue Feb  8 18:26:14 2022


#	Modifying user name:	trannguyen
#	Modification time:	Tue Feb  8 18:26:14 2022

@<TRIPOS>MOLECULE
CHEMBL457
 19 19 0 0 0
SMALL
GASTEIGER

@<TRIPOS>ATOM
      1 C           3.3518   32.5210    8.6618 C.3     1  UNL1        0.2054
      2 O           3.7883   31.6604    9.7184 O.3     1  UNL1       -0.4758
      3 C          -0.2935   28.8607   10.0537 C.3     1  UNL1        0.0311
      4 C           1.1987   29.0082   10.0757 C.ar    1  UNL1       -0.0189
      5 C           2.0293   27.9081   10.2878 C.ar    1  UNL1       -0.0044
      6 C           3.4101   28.0822   10.3533 C.ar    1  UNL1       -0.0016
      7 C           3.9836   29.3533   10.1810 C.ar    1  UNL1        0.0121
      8 C           5.4752   29.4977   10.3097 C.3     1  UNL1        0.0342
      9 C           3.1540   30.4633    9.9283 C.ar    1  UNL1        0.1342
     10 C           1.7681   30.2810    9.9139 C.ar    1  UNL1        0.0323
     11 C           3.8995   32.0994    7.2872 C.3     1  UNL1        0.0479
     12 C           3.6523   33.1531    6.1911 C.3     1  UNL1        0.0144
     13 C           3.0646   32.6054    4.8555 C.3     1  UNL1        0.0896
     14 C           4.0169   32.9610    3.6953 C.3     1  UNL1        0.0111
     15 C           2.9355   31.0711    4.8756 C.3     1  UNL1        0.0111
     16 C           1.7426   33.3054    4.5729 C.2     1  UNL1        0.3127
     17 O           0.6255   32.7984    4.6831 O.2     1  UNL1       -0.2503
     18 O           1.8465   34.5769    4.1565 O.3     1  UNL1       -0.4802
     19 H           0.9200   34.8568    3.9994 H       1  UNL1        0.2951
@<TRIPOS>BOND
     1     3     4    1
     2     4     5   ar
     3     4    10   ar
     4     5     6   ar
     5     6     7   ar
     6     7     8    1
     7     7     9   ar
     8     9     2    1
     9     9    10   ar
    10     2     1    1
    11     1    11    1
    12    11    12    1
    13    12    13    1
    14    13    14    1
    15    13    15    1
    16    13    16    1
    17    16    17    2
    18    16    18    1
    19    18    19    1
#	Name:			CHEMBL458019
#	Creating user name:	trannguyen
#	Creation time:		Tue Feb  8 18:26:14 2022


#	Modifying user name:	trannguyen
#	Modification time:	Tue Feb  8 18:26:14 2022

@<TRIPOS>MOLECULE
CHEMBL458019
 14 15 0 0 0
SMALL
GASTEIGER

@<TRIPOS>ATOM
      1 C           1.5965   28.1524   11.5643 C.3     1  UNL1        0.1125
      2 N           1.8634   29.1056   10.4755 N.pl3   1  UNL1       -0.3009
      3 C           3.1259   29.5305   10.2657 C.3     1  UNL1        0.1175
      4 C           3.4257   30.3511    9.1848 C.2     1  UNL1       -0.0047
      5 C           2.4208   30.7232    8.2858 C.2     1  UNL1       -0.0016
      6 C           1.1225   30.2754    8.5360 C.2     1  UNL1        0.0155
      7 C           0.8691   29.4568    9.6328 C.2     1  UNL1        0.0616
      8 C           2.7414   31.5164    7.0943 C.2     1  UNL1       -0.0016
      9 C           3.8522   32.3616    7.0587 C.2     1  UNL1       -0.0047
     10 C           4.1754   33.0347    5.8842 C.3     1  UNL1        0.1175
     11 N           3.4128   32.8984    4.7787 N.pl3   1  UNL1       -0.3009
     12 C           3.8339   33.5295    3.5180 C.3     1  UNL1        0.1125
     13 C           2.3273   32.0979    4.7857 C.2     1  UNL1        0.0616
     14 C           1.9650   31.4074    5.9361 C.2     1  UNL1        0.0155
@<TRIPOS>BOND
     1     1     2    1
     2     2     3    1
     3     2     7    1
     4     3     4    1
     5     4     5    2
     6     5     8    1
     7     5     6    1
     8     8     9    2
     9     8    14    1
    10     9    10    1
    11    10    11    1
    12    11    12    1
    13    11    13    1
    14    13    14    2
    15     6     7    2
#	Name:			CHEMBL459
#	Creating user name:	trannguyen
#	Creation time:		Tue Feb  8 18:26:14 2022


#	Modifying user name:	trannguyen
#	Modification time:	Tue Feb  8 18:26:14 2022

@<TRIPOS>MOLECULE
CHEMBL459
 20 20 0 0 0
SMALL
GASTEIGER

@<TRIPOS>ATOM
      1 C           3.0415   31.7693    9.6603 C.3     1  UNL1        0.0515
      2 C           2.7918   30.2919    9.8940 C.ar    1  UNL1       -0.0171
      3 C           3.8589   29.3756    9.8512 C.ar    1  UNL1       -0.0009
      4 C           3.6643   28.0253   10.1639 C.ar    1  UNL1        0.0394
      5 C           2.3979   27.5902   10.5284 C.ar    1  UNL1        0.1675
      6 O           2.1494   26.2902   10.8730 O.3     1  UNL1       -0.5029
      7 C           1.3334   28.4863   10.5637 C.ar    1  UNL1        0.1672
      8 O           0.0957   28.0515   10.9459 O.3     1  UNL1       -0.5029
      9 C           1.5140   29.8267   10.2397 C.ar    1  UNL1        0.0356
     10 H           2.9795   25.7905   10.7836 H       1  UNL1        0.2923
     11 H           0.2305   27.1112   11.1811 H       1  UNL1        0.2923
     12 C           3.9358   31.8573    7.3106 C.3     1  UNL1        0.0273
     13 C           2.7938   32.3254    8.2340 C.3     1  UNL1        0.1335
     14 N           2.8087   33.8071    8.2135 N.3     1  UNL1       -0.3146
     15 H           2.1271   34.2206    8.8448 H       1  UNL1        0.1193
     16 H           2.7915   34.1937    7.2731 H       1  UNL1        0.1193
     17 C           1.4684   31.7610    7.6722 C.2     1  UNL1        0.3265
     18 O           1.4020   30.9113    6.7889 O.2     1  UNL1       -0.2489
     19 O           0.3511   32.2877    8.2245 O.3     1  UNL1       -0.4793
     20 H           0.5696   32.9356    8.9195 H       1  UNL1        0.2951
@<TRIPOS>BOND
     1    13     1    1
     2    13    17    1
     3    13    14    1
     4    13    12    1
     5    14    15    1
     6    14    16    1
     7     1     2    1
     8     2     3   ar
     9     2     9   ar
    10     3     4   ar
    11     4     5   ar
    12     5     6    1
    13     5     7   ar
    14     6    10    1
    15     7     8    1
    16     7     9   ar
    17     8    11    1
    18    17    18    2
    19    17    19    1
    20    19    20    1
#	Name:			CHEMBL45
#	Creating user name:	trannguyen
#	Creation time:		Tue Feb  8 18:26:14 2022


#	Modifying user name:	trannguyen
#	Modification time:	Tue Feb  8 18:26:14 2022

@<TRIPOS>MOLECULE
CHEMBL45
 19 20 0 0 0
SMALL
GASTEIGER

@<TRIPOS>ATOM
      1 C           4.9116   29.9776    9.8898 C.ar    1  UNL1        0.1388
      2 C           4.8126   28.6036   10.1236 C.ar    1  UNL1        0.0384
      3 C           3.5688   27.9512   10.1068 C.ar    1  UNL1        0.0201
      4 C           2.4319   28.7300    9.8562 C.ar    1  UNL1        0.0565
      5 N           1.1039   28.3846    9.7861 N.ar    1  UNL1       -0.3523
      6 H           0.7513   27.4477    9.9198 H       1  UNL1        0.1660
      7 C           0.3380   29.4897    9.5150 C.ar    1  UNL1        0.0681
      8 C           1.1706   30.5861    9.4172 C.ar    1  UNL1       -0.0020
      9 C           2.4975   30.0978    9.6177 C.ar    1  UNL1        0.0161
     10 C           3.7552   30.7175    9.6243 C.ar    1  UNL1        0.0381
     11 C           6.2343   31.8827    9.4657 C.3     1  UNL1        0.2525
     12 O           6.1667   30.5359    9.9425 O.3     1  UNL1       -0.4714
     13 C           0.7756   32.0107    9.1489 C.3     1  UNL1        0.0491
     14 C           0.7971   32.8957   10.4026 C.3     1  UNL1        0.0941
     15 N           0.7136   34.3191   10.1231 N.am    1  UNL1       -0.3040
     16 C          -0.2954   35.1093   10.6054 C.2     1  UNL1        0.2230
     17 C          -0.2198   36.5331   10.1387 C.3     1  UNL1        0.0946
     18 O          -1.1908   34.7026   11.3571 O.2     1  UNL1       -0.2751
     19 H           1.3619   34.7055    9.4432 H       1  UNL1        0.1494
@<TRIPOS>BOND
     1    11    12    1
     2    12     1    1
     3     1     2   ar
     4     1    10   ar
     5     2     3   ar
     6     3     4   ar
     7     4     5   ar
     8     4     9   ar
     9     5     6    1
    10     5     7   ar
    11     7     8   ar
    12     8    13    1
    13     8     9   ar
    14    13    14    1
    15    14    15    1
    16    15    16   am
    17    15    19    1
    18    16    17    1
    19    16    18    2
    20     9    10   ar
#	Name:			CHEMBL460291
#	Creating user name:	trannguyen
#	Creation time:		Tue Feb  8 18:26:14 2022


#	Modifying user name:	trannguyen
#	Modification time:	Tue Feb  8 18:26:14 2022

@<TRIPOS>MOLECULE
CHEMBL460291
 34 35 0 0 0
SMALL
GASTEIGER

@<TRIPOS>ATOM
      1 C           4.4934   32.0994    7.7113 C.2     1  UNL1        0.0707
      2 C           3.5066   31.8004    6.8342 C.2     1  UNL1        0.0283
      3 C           2.1314   31.2952    7.2088 C.3     1  UNL1        0.0470
      4 N           3.7023   32.0045    5.4851 N.pl3   1  UNL1       -0.3192
      5 C           4.8491   32.5246    4.9126 C.2     1  UNL1        0.0283
      6 C           4.8321   32.5138    3.4008 C.3     1  UNL1        0.0470
      7 C           5.8421   32.9960    5.7074 C.2     1  UNL1        0.0707
      8 C           5.7539   32.8644    7.2502 C.3     1  UNL1        0.0812
      9 H           2.9645   31.6971    4.8560 H       1  UNL1        0.1516
     10 C           7.0598   32.3189    7.8713 C.ar    1  UNL1       -0.0138
     11 C           7.5578   31.0681    7.4661 C.ar    1  UNL1       -0.0036
     12 C           8.7417   30.5562    8.0082 C.ar    1  UNL1       -0.0003
     13 C           9.4440   31.2693    8.9757 C.ar    1  UNL1       -0.0000
     14 C           8.9753   32.5090    9.3909 C.ar    1  UNL1       -0.0003
     15 C           7.8026   33.0446    8.8387 C.ar    1  UNL1       -0.0031
     16 C           7.4642   34.4002    9.2662 C.2     1  UNL1        0.0064
     17 C           8.0817   35.4957    8.8165 C.2     1  UNL1        0.0819
     18 C           7.7425   36.8296    9.3279 C.2     1  UNL1        0.3412
     19 O           7.2354   37.6722    8.6135 O.2     1  UNL1       -0.2449
     20 O           8.0262   36.9175   10.6542 O.3     1  UNL1       -0.4527
     21 C           9.1075   37.7608   11.1193 C.3     1  UNL1        0.1366
     22 C          10.1912   37.8348   10.0417 C.3     1  UNL1        0.0437
     23 C           8.6017   39.1462   11.5303 C.3     1  UNL1        0.0437
     24 C           9.6778   37.0762   12.3747 C.3     1  UNL1        0.0437
     25 C           4.4064   31.7327    9.1553 C.2     1  UNL1        0.3387
     26 O           4.1758   32.5082   10.0513 O.2     1  UNL1       -0.2452
     27 O           4.7319   30.4244    9.3388 O.3     1  UNL1       -0.4456
     28 C           4.1503   28.1599   10.0532 C.3     1  UNL1        0.0513
     29 C           3.7711   29.6292   10.0385 C.3     1  UNL1        0.2089
     30 C           7.0025   33.7312    5.1230 C.2     1  UNL1        0.3387
     31 O           7.1332   34.9430    5.0981 O.2     1  UNL1       -0.2452
     32 O           7.9244   32.8489    4.6743 O.3     1  UNL1       -0.4456
     33 C           9.2384   33.3485    4.3929 C.3     1  UNL1        0.2089
     34 C          10.0933   33.0872    5.6163 C.3     1  UNL1        0.0513
@<TRIPOS>BOND
     1    28    29    1
     2    29    27    1
     3    27    25    1
     4    25    26    2
     5    25     1    1
     6     1     2    2
     7     1     8    1
     8     2     3    1
     9     2     4    1
    10     4     5    1
    11     4     9    1
    12     5     6    1
    13     5     7    2
    14     7    30    1
    15     7     8    1
    16    30    31    2
    17    30    32    1
    18    32    33    1
    19    33    34    1
    20     8    10    1
    21    10    11   ar
    22    10    15   ar
    23    11    12   ar
    24    12    13   ar
    25    13    14   ar
    26    14    15   ar
    27    15    16    1
    28    16    17    2
    29    17    18    1
    30    18    19    2
    31    18    20    1
    32    20    21    1
    33    21    22    1
    34    21    23    1
    35    21    24    1
#	Name:			CHEMBL460499
#	Creating user name:	trannguyen
#	Creation time:		Tue Feb  8 18:26:14 2022


#	Modifying user name:	trannguyen
#	Modification time:	Tue Feb  8 18:26:14 2022

@<TRIPOS>MOLECULE
CHEMBL460499
 20 20 0 0 0
SMALL
GASTEIGER

@<TRIPOS>ATOM
      1 N           3.9242   31.8661    8.2670 N.am    1  UNL1       -0.2863
      2 C           2.7150   31.2190    8.3645 C.2     1  UNL1        0.3235
      3 O           1.7661   31.5240    7.6391 O.2     1  UNL1       -0.2491
      4 N           2.6316   30.1943    9.3320 N.ar    1  UNL1       -0.2113
      5 C           1.3548   29.7444    9.6741 C.ar    1  UNL1        0.1231
      6 C           1.1378   28.7002   10.4707 C.ar    1  UNL1        0.2134
      7 F          -0.1011   28.2895   10.7991 F       1  UNL1       -0.1975
      8 C           2.2731   27.9364   11.0097 C.ar    1  UNL1        0.2901
      9 O           2.1432   26.9215   11.6755 O.2     1  UNL1       -0.2646
     10 N           3.4984   28.4602   10.6837 N.ar    1  UNL1       -0.2722
     11 H           4.3029   27.9602   11.0414 H       1  UNL1        0.1735
     12 C           3.7533   29.5323    9.8573 C.ar    1  UNL1        0.3378
     13 O           4.9250   29.8515    9.6415 O.2     1  UNL1       -0.2460
     14 H           4.6945   31.5211    8.8351 H       1  UNL1        0.1512
     15 C           4.2007   32.9081    7.2860 C.3     1  UNL1        0.0911
     16 C           5.0920   32.4089    6.1427 C.3     1  UNL1        0.0213
     17 C           4.4200   32.5118    4.7621 C.3     1  UNL1        0.0018
     18 C           3.4127   31.3709    4.5375 C.3     1  UNL1        0.0001
     19 C           1.8269   33.3479    4.4405 C.3     1  UNL1        0.0000
     20 C           2.0365   31.8789    4.0911 C.3     1  UNL1        0.0000
@<TRIPOS>BOND
     1    19    20    1
     2    20    18    1
     3    18    17    1
     4    17    16    1
     5    16    15    1
     6    15     1    1
     7     1     2   am
     8     1    14    1
     9     2     3    2
    10     2     4   am
    11     4     5   ar
    12     4    12   ar
    13     5     6   ar
    14     6     7    1
    15     6     8   ar
    16     8     9    2
    17     8    10   ar
    18    10    11    1
    19    10    12   ar
    20    12    13    2
#	Name:			CHEMBL461727
#	Creating user name:	trannguyen
#	Creation time:		Tue Feb  8 18:26:14 2022


#	Modifying user name:	trannguyen
#	Modification time:	Tue Feb  8 18:26:14 2022

@<TRIPOS>MOLECULE
CHEMBL461727
 39 41 0 0 0
SMALL
GASTEIGER

@<TRIPOS>ATOM
      1 C           2.2766   31.4429    6.0020 C.3     1  UNL1        0.2668
      2 O           3.6054   31.6949    6.4780 O.3     1  UNL1       -0.3259
      3 C           4.4897   32.1303    5.4410 C.3     1  UNL1        0.1765
      4 C           4.0372   33.5070    4.9301 C.3     1  UNL1        0.1694
      5 O           4.8299   33.9913    3.8393 O.3     1  UNL1       -0.3794
      6 C           2.5983   33.3942    4.4183 C.3     1  UNL1        0.1715
      7 O           2.0960   34.6925    4.0665 O.3     1  UNL1       -0.3794
      8 C           1.6472   32.7313    5.4237 C.3     1  UNL1        0.1965
      9 O           0.4056   32.4027    4.7660 O.3     1  UNL1       -0.3775
     10 H           5.7538   33.7020    4.0013 H       1  UNL1        0.2105
     11 H           2.8307   35.1338    3.5924 H       1  UNL1        0.2105
     12 H           0.4225   32.7992    3.8757 H       1  UNL1        0.2106
     13 O           1.5464   30.9263    7.1151 O.3     1  UNL1       -0.3117
     14 C           1.9972   31.3530    8.4199 C.3     1  UNL1        0.2304
     15 C           2.4096   30.1150    9.2153 C.ar    1  UNL1        0.0192
     16 C           1.4338   29.1881    9.6312 C.ar    1  UNL1       -0.0009
     17 C           1.7986   28.0437   10.3456 C.ar    1  UNL1       -0.0002
     18 C           3.1375   27.8068   10.6475 C.ar    1  UNL1       -0.0000
     19 C           4.1133   28.7139   10.2409 C.ar    1  UNL1       -0.0002
     20 C           3.7526   29.8574    9.5278 C.ar    1  UNL1       -0.0009
     21 N           0.2035   32.8053    9.7306 N.1     1  UNL1       -0.1930
     22 C           0.9737   32.1468    9.1695 C.1     1  UNL1        0.1072
     23 C           5.9218   32.1548    5.9966 C.3     1  UNL1        0.1769
     24 O           6.1502   33.3642    6.7347 O.3     1  UNL1       -0.3259
     25 C           5.8162   33.2177    8.1297 C.3     1  UNL1        0.2658
     26 O           4.7517   34.1270    8.4137 O.3     1  UNL1       -0.3260
     27 C           4.3531   34.1393    9.7825 C.3     1  UNL1        0.1761
     28 C           5.5096   34.6373   10.6599 C.3     1  UNL1        0.1694
     29 O           5.1913   34.6410   12.0559 O.3     1  UNL1       -0.3794
     30 C           6.7025   33.7050   10.4669 C.3     1  UNL1        0.1715
     31 O           7.8427   34.2153   11.1803 O.3     1  UNL1       -0.3794
     32 C           7.0693   33.5280    8.9910 C.3     1  UNL1        0.1964
     33 O           8.0452   32.4732    8.9115 O.3     1  UNL1       -0.3775
     34 H           4.3159   35.0797   12.1438 H       1  UNL1        0.2105
     35 H           7.4939   34.4830   12.0562 H       1  UNL1        0.2105
     36 H           8.7151   32.6981    9.5906 H       1  UNL1        0.2106
     37 C           3.1238   35.0473    9.9040 C.3     1  UNL1        0.1693
     38 O           3.2480   36.1935    9.0670 O.3     1  UNL1       -0.3794
     39 H           3.6116   36.9130    9.6164 H       1  UNL1        0.2105
@<TRIPOS>BOND
     1    21    22    3
     2    14    13    1
     3    14    15    1
     4    14    22    1
     5     1     2    1
     6     1     8    1
     7     1    13    1
     8     2     3    1
     9     3    23    1
    10     3     4    1
    11    23    24    1
    12    25    26    1
    13    25    32    1
    14    25    24    1
    15    26    27    1
    16    27    37    1
    17    27    28    1
    18    37    38    1
    19    38    39    1
    20    28    30    1
    21    28    29    1
    22    29    34    1
    23    30    31    1
    24    30    32    1
    25    31    35    1
    26    32    33    1
    27    33    36    1
    28     4     6    1
    29     4     5    1
    30     5    10    1
    31     6     7    1
    32     6     8    1
    33     7    11    1
    34     8     9    1
    35     9    12    1
    36    15    16   ar
    37    15    20   ar
    38    16    17   ar
    39    17    18   ar
    40    18    19   ar
    41    19    20   ar
#	Name:			CHEMBL462547
#	Creating user name:	trannguyen
#	Creation time:		Tue Feb  8 18:26:14 2022


#	Modifying user name:	trannguyen
#	Modification time:	Tue Feb  8 18:26:14 2022

@<TRIPOS>MOLECULE
CHEMBL462547
 8 7 0 0 0
SMALL
GASTEIGER

@<TRIPOS>ATOM
      1 C           1.6149   28.0871   11.3365 C.2     1  UNL1        0.3985
      2 N           0.3671   28.3617   10.9001 N.am    1  UNL1       -0.2950
      3 O           1.9697   26.9771   11.6998 O.2     1  UNL1       -0.2267
      4 H           0.1102   29.3132   10.6895 H       1  UNL1        0.1482
      5 H          -0.3277   27.6316   10.9275 H       1  UNL1        0.1482
      6 O           2.3645   29.2111   11.3226 O.3     1  UNL1       -0.4348
      7 C           4.4851   28.8987   10.1966 C.3     1  UNL1        0.0513
      8 C           3.0775   29.4584   10.1025 C.3     1  UNL1        0.2102
@<TRIPOS>BOND
     1     7     8    1
     2     8     6    1
     3     6     1    1
     4     1     2   am
     5     1     3    2
     6     2     4    1
     7     2     5    1
#	Name:			CHEMBL4639024
#	Creating user name:	trannguyen
#	Creation time:		Tue Feb  8 18:26:14 2022


#	Modifying user name:	trannguyen
#	Modification time:	Tue Feb  8 18:26:14 2022

@<TRIPOS>MOLECULE
CHEMBL4639024
 38 38 0 0 0
SMALL
GASTEIGER

@<TRIPOS>ATOM
      1 C           5.1729   32.4555    8.5100 C.3     1  UNL1        0.2123
      2 P           4.1824   32.9660    7.0584 P.3     1  UNL1        0.3545
      3 O           3.9580   31.4856    6.6909 O.2     1  UNL1       -0.2571
      4 O           3.2460   33.4486    5.6862 O.3     1  UNL1       -0.2962
      5 C           1.1265   32.5955    4.8290 C.3     1  UNL1        0.0326
      6 C           2.6445   32.6044    4.7141 C.3     1  UNL1        0.1241
      7 C           3.0898   33.1544    3.3519 C.3     1  UNL1        0.0326
      8 O           5.5817   33.2771    6.1533 O.3     1  UNL1       -0.2962
      9 C           6.4774   32.1801    5.7912 C.3     1  UNL1        0.1241
     10 C           6.2830   31.8702    4.3039 C.3     1  UNL1        0.0326
     11 C           7.9467   32.5624    5.9943 C.3     1  UNL1        0.0326
     12 P           4.2223   31.2474    9.5029 P.3     1  UNL1        0.3545
     13 O           5.3425   30.9968   10.4962 O.2     1  UNL1       -0.2571
     14 O           3.1758   32.4782   10.0631 O.3     1  UNL1       -0.2962
     15 C           1.7212   32.3876   10.1655 C.3     1  UNL1        0.1241
     16 C           1.0630   33.7717   10.4098 C.3     1  UNL1        0.0326
     17 C           1.0552   31.9251    8.8638 C.3     1  UNL1        0.0326
     18 O           3.3236   30.1054   10.4415 O.3     1  UNL1       -0.2962
     19 C           2.8229   28.8290   10.0759 C.3     1  UNL1        0.1241
     20 C           3.8752   27.7367   10.1004 C.3     1  UNL1        0.0326
     21 C           1.7485   28.4436   11.1244 C.3     1  UNL1        0.0326
     22 C           5.7005   33.6667    9.3342 C.3     1  UNL1        0.0509
     23 C           7.1781   33.8476    9.7619 C.ar    1  UNL1       -0.0214
     24 C           8.1637   32.9376    9.3584 C.ar    1  UNL1       -0.0056
     25 C           9.5586   33.1482    9.6143 C.ar    1  UNL1        0.0103
     26 C           9.8687   34.3978   10.1857 C.ar    1  UNL1        0.1255
     27 O          11.1987   34.6341   10.4888 O.3     1  UNL1       -0.5061
     28 C           8.9791   35.3914   10.5241 C.ar    1  UNL1        0.0103
     29 C           7.5900   35.0622   10.3687 C.ar    1  UNL1       -0.0056
     30 H          11.2654   34.4709   11.4279 H       1  UNL1        0.2922
     31 C          10.6450   32.0825    9.2688 C.3     1  UNL1        0.0218
     32 C          11.4898   31.7353   10.5187 C.3     1  UNL1        0.0045
     33 C          10.0505   30.7495    8.7243 C.3     1  UNL1        0.0045
     34 C          11.6208   32.5435    8.1622 C.3     1  UNL1        0.0045
     35 C           9.4185   36.7855   11.0605 C.3     1  UNL1        0.0218
     36 C          10.1026   36.7182   12.4675 C.3     1  UNL1        0.0045
     37 C          10.4453   37.4091   10.1021 C.3     1  UNL1        0.0045
     38 C           8.2642   37.8065   11.2787 C.3     1  UNL1        0.0045
@<TRIPOS>BOND
     1     5     6    1
     2     6     7    1
     3     6     4    1
     4     4     2    1
     5     2     3    2
     6     2     8    1
     7     2     1    1
     8     8     9    1
     9     9    10    1
    10     9    11    1
    11     1    22    1
    12     1    12    1
    13    22    23    1
    14    23    24   ar
    15    23    29   ar
    16    24    25   ar
    17    25    31    1
    18    25    26   ar
    19    31    32    1
    20    31    33    1
    21    31    34    1
    22    26    27    1
    23    26    28   ar
    24    27    30    1
    25    28    35    1
    26    28    29   ar
    27    35    36    1
    28    35    37    1
    29    35    38    1
    30    12    13    2
    31    12    14    1
    32    12    18    1
    33    14    15    1
    34    15    16    1
    35    15    17    1
    36    18    19    1
    37    19    20    1
    38    19    21    1
#	Name:			CHEMBL46403
#	Creating user name:	trannguyen
#	Creation time:		Tue Feb  8 18:26:14 2022


#	Modifying user name:	trannguyen
#	Modification time:	Tue Feb  8 18:26:14 2022

@<TRIPOS>MOLECULE
CHEMBL46403
 21 20 0 0 0
SMALL
GASTEIGER

@<TRIPOS>ATOM
      1 C           9.0600   31.0417    8.4572 C.3     1  UNL1        0.0000
      2 C           9.5869   31.3437    7.0227 C.3     1  UNL1        0.0000
      3 C           9.0479   32.6506    6.4570 C.3     1  UNL1        0.0000
      4 C           8.1682   32.5688    5.2069 C.3     1  UNL1        0.0000
      5 C           6.7744   31.9572    5.4796 C.3     1  UNL1        0.0000
      6 C           5.5815   32.9113    5.7274 C.3     1  UNL1        0.0000
      7 C           4.5008   32.4449    6.7094 C.3     1  UNL1        0.0000
      8 C           3.3193   31.7483    6.0411 C.3     1  UNL1        0.0000
      9 C           3.4066   31.7357    4.5285 C.3     1  UNL1        0.0000
     10 C           1.9947   33.6285    4.3528 C.3     1  UNL1        0.0000
     11 C           2.1858   32.2533    3.8175 C.3     1  UNL1        0.0000
     12 C           7.7717   31.7699    8.9080 C.3     1  UNL1        0.0000
     13 C           6.9662   31.0266   10.0166 C.3     1  UNL1        0.0000
     14 C           5.4919   30.8189    9.6053 C.3     1  UNL1        0.0000
     15 C           4.8617   29.4545    9.9272 C.3     1  UNL1        0.0006
     16 C           3.3114   29.3914    9.9099 C.3     1  UNL1        0.0116
     17 C           2.6213   28.0548   10.1741 C.3     1  UNL1        0.1094
     18 C           1.6942   28.0228   11.3348 C.2     1  UNL1        0.3138
     19 O           2.0248   27.9611   12.5574 O.2     1  UNL1       -0.2503
     20 O           0.4056   27.9464   10.9358 O.3     1  UNL1       -0.4802
     21 H           0.3481   27.4239   10.1031 H       1  UNL1        0.2951
@<TRIPOS>BOND
     1    10    11    1
     2    11     9    1
     3     9     8    1
     4     8     7    1
     5     7     6    1
     6     6     5    1
     7     5     4    1
     8     4     3    1
     9     3     2    1
    10     2     1    1
    11     1    12    1
    12    12    13    1
    13    13    14    1
    14    14    15    1
    15    15    16    1
    16    16    17    1
    17    17    18    1
    18    18    19    2
    19    18    20    1
    20    20    21    1
#	Name:			CHEMBL4645080
#	Creating user name:	trannguyen
#	Creation time:		Tue Feb  8 18:26:14 2022


#	Modifying user name:	trannguyen
#	Modification time:	Tue Feb  8 18:26:14 2022

@<TRIPOS>MOLECULE
CHEMBL4645080
 30 33 0 0 0
SMALL
GASTEIGER

@<TRIPOS>ATOM
      1 C           3.8754   31.5296    4.8689 C.3     1  UNL1        0.0000
      2 C           3.2762   32.0470    3.5540 C.3     1  UNL1        0.0000
      3 C           3.8131   33.4575    3.3990 C.3     1  UNL1        0.0000
      4 C           5.1437   33.5186    4.1841 C.3     1  UNL1        0.0003
      5 C           6.2562   34.0629    3.2775 C.3     1  UNL1        0.0046
      6 C           7.5265   34.4978    4.0294 C.3     1  UNL1        0.0254
      7 C           8.5490   35.0291    3.0673 C.2     1  UNL1       -0.0342
      8 C           8.5504   34.7595    1.7484 C.2     1  UNL1       -0.0418
      9 C           9.4421   35.5433    0.8116 C.3     1  UNL1        0.0861
     10 C           8.5538   36.3182   -0.1371 C.2     1  UNL1        0.1547
     11 O           8.7884   37.4890   -0.4427 O.2     1  UNL1       -0.2957
     12 C           7.4479   35.5414   -0.8356 C.3     1  UNL1        0.0652
     13 C           6.6709   34.6537    0.1425 C.3     1  UNL1        0.0115
     14 C           7.5635   33.7852    1.0918 C.3     1  UNL1        0.0157
     15 C           8.3051   32.7295    0.2407 C.3     1  UNL1        0.0041
     16 C           6.6247   33.0735    2.1529 C.3     1  UNL1        0.0038
     17 C           7.1621   31.7877    2.8094 C.3     1  UNL1        0.0003
     18 C           6.2098   31.1676    3.8529 C.3     1  UNL1        0.0000
     19 C           5.3477   32.1056    4.7862 C.3     1  UNL1        0.0000
     20 C           6.0167   32.1564    6.1696 C.3     1  UNL1        0.0000
     21 C           1.4870   31.9261    5.6044 C.3     1  UNL1        0.0000
     22 C           2.9373   31.7683    6.1201 C.3     1  UNL1        0.0000
     23 C           3.2808   32.9439    7.0678 C.3     1  UNL1        0.0001
     24 C           2.9892   32.7390    8.5756 C.3     1  UNL1        0.0024
     25 C           3.3315   31.3539    9.1483 C.3     1  UNL1        0.0269
     26 C           2.1590   30.6192    9.8547 C.3     1  UNL1        0.0885
     27 C           0.8398   30.7287    9.0803 C.3     1  UNL1        0.0293
     28 C           2.4908   29.1554   10.1623 C.3     1  UNL1        0.0293
     29 O           1.9519   31.2723   11.1183 O.3     1  UNL1       -0.3867
     30 H           1.2435   30.8011   11.5886 H       1  UNL1        0.2102
@<TRIPOS>BOND
     1    22    23    1
     2    22     1    1
     3    22    21    1
     4    23    24    1
     5    24    25    1
     6    25    26    1
     7    26    27    1
     8    26    28    1
     9    26    29    1
    10    29    30    1
    11     1     2    1
    12     1    19    1
    13     2     3    1
    14     3     4    1
    15     4     5    1
    16     4    19    1
    17     5     6    1
    18     5    16    1
    19     6     7    1
    20     7     8    2
    21     8     9    1
    22     8    14    1
    23     9    10    1
    24    10    12    1
    25    10    11    2
    26    12    13    1
    27    13    14    1
    28    14    16    1
    29    14    15    1
    30    16    17    1
    31    17    18    1
    32    18    19    1
    33    19    20    1
#	Name:			CHEMBL4648290
#	Creating user name:	trannguyen
#	Creation time:		Tue Feb  8 18:26:14 2022


#	Modifying user name:	trannguyen
#	Modification time:	Tue Feb  8 18:26:14 2022

@<TRIPOS>MOLECULE
CHEMBL4648290
 31 34 0 0 0
SMALL
GASTEIGER

@<TRIPOS>ATOM
      1 C           9.3993   35.1193   -5.2796 C.3     1  UNL1        0.0000
      2 C           8.2127   34.6508   -6.1436 C.3     1  UNL1        0.0000
      3 C           7.0773   35.6521   -5.9384 C.3     1  UNL1        0.0000
      4 C           7.5486   36.6549   -4.8686 C.3     1  UNL1        0.0003
      5 C           6.8431   38.0226   -4.9946 C.3     1  UNL1        0.0046
      6 C           7.0135   38.8455   -3.7091 C.3     1  UNL1        0.0254
      7 C           6.5515   40.2609   -3.8262 C.2     1  UNL1       -0.0346
      8 C           6.2647   40.9057   -4.9691 C.2     1  UNL1       -0.0474
      9 C           5.4849   42.2619   -4.9622 C.3     1  UNL1        0.0396
     10 C           6.4442   43.4559   -5.1555 C.3     1  UNL1        0.0064
     11 C           4.7744   42.5218   -3.5985 C.3     1  UNL1        0.0064
     12 C           4.4103   42.2502   -6.1087 C.3     1  UNL1        0.1138
     13 O           3.2537   43.0328   -5.8019 O.3     1  UNL1       -0.3842
     14 C           3.9341   40.8297   -6.4141 C.3     1  UNL1        0.0299
     15 C           5.0596   39.9155   -6.9212 C.3     1  UNL1        0.0062
     16 C           6.4821   40.2088   -6.3323 C.3     1  UNL1        0.0150
     17 C           7.2403   41.1098   -7.3380 C.3     1  UNL1        0.0040
     18 C           7.2861   38.8322   -6.2285 C.3     1  UNL1        0.0038
     19 C           8.8326   38.9202   -6.2427 C.3     1  UNL1        0.0003
     20 C           9.4931   37.5245   -6.2236 C.3     1  UNL1        0.0000
     21 C           9.0910   36.6402   -5.0040 C.3     1  UNL1        0.0000
     22 C           9.8741   37.1437   -3.7801 C.3     1  UNL1        0.0000
     23 H           3.5412   43.9571   -5.7118 H       1  UNL1        0.2103
     24 C           9.6785   34.1633   -4.0494 C.3     1  UNL1        0.0000
     25 C          11.1297   33.6486   -4.1104 C.3     1  UNL1        0.0000
     26 C           8.6808   32.9897   -3.8944 C.3     1  UNL1        0.0000
     27 C           7.8817   32.9284   -2.5774 C.3     1  UNL1        0.0000
     28 C           7.3193   34.3247   -2.2437 C.3     1  UNL1        0.0000
     29 C           7.5960   36.4109   -0.8650 C.3     1  UNL1        0.0000
     30 C           7.6727   34.8774   -0.8474 C.3     1  UNL1        0.0000
     31 C           6.7689   34.3347    0.2591 C.3     1  UNL1        0.0000
@<TRIPOS>BOND
     1    29    30    1
     2    30    31    1
     3    30    28    1
     4    28    27    1
     5    27    26    1
     6    26    24    1
     7    24    25    1
     8     1     2    1
     9     1    21    1
    10     1    24    1
    11     2     3    1
    12     3     4    1
    13     4     5    1
    14     4    21    1
    15     5     6    1
    16     5    18    1
    17     6     7    1
    18     7     8    2
    19     8     9    1
    20     8    16    1
    21     9    12    1
    22     9    10    1
    23     9    11    1
    24    12    14    1
    25    12    13    1
    26    13    23    1
    27    14    15    1
    28    15    16    1
    29    16    18    1
    30    16    17    1
    31    18    19    1
    32    19    20    1
    33    20    21    1
    34    21    22    1
#	Name:			CHEMBL4649901
#	Creating user name:	trannguyen
#	Creation time:		Tue Feb  8 18:26:14 2022


#	Modifying user name:	trannguyen
#	Modification time:	Tue Feb  8 18:26:14 2022

@<TRIPOS>MOLECULE
CHEMBL4649901
 121 126 0 0 0
SMALL
GASTEIGER

@<TRIPOS>ATOM
      1 C          13.0840   39.4249   -4.6720 C.3     1  UNL1        0.1822
      2 C          14.2594   39.0851   -3.6657 C.2     1  UNL1        0.2433
      3 O          15.1802   39.9029   -3.5115 O.2     1  UNL1       -0.2732
      4 N          14.3551   37.8855   -2.9371 N.am    1  UNL1       -0.3022
      5 H          15.0920   37.9654   -2.2391 H       1  UNL1        0.1495
      6 C          13.2692   36.9394   -2.4868 C.3     1  UNL1        0.0989
      7 C          13.3433   37.0433   -0.9719 C.3     1  UNL1        0.0238
      8 C          13.4307   35.4106   -2.9647 C.3     1  UNL1        0.1368
      9 O          13.6790   35.5088   -4.3653 O.3     1  UNL1       -0.3823
     10 H          13.1752   34.8148   -4.8092 H       1  UNL1        0.2104
     11 C          14.5920   34.5718   -2.3183 C.3     1  UNL1        0.1049
     12 C          16.0043   34.9976   -2.7837 C.3     1  UNL1        0.0122
     13 C          14.6362   33.0046   -2.2720 C.2     1  UNL1        0.2248
     14 O          14.3626   32.4204   -3.3426 O.2     1  UNL1       -0.2750
     15 N          14.9607   32.1073   -1.2918 N.am    1  UNL1       -0.2964
     16 H          14.9195   31.1826   -1.7281 H       1  UNL1        0.1499
     17 C          14.8589   32.0837    0.1862 C.3     1  UNL1        0.1756
     18 C          14.6003   30.6562    0.9524 C.3     1  UNL1        0.1373
     19 C          15.7538   30.0716    1.7790 C.3     1  UNL1        0.0340
     20 O          13.4862   30.5123    1.8371 O.3     1  UNL1       -0.3823
     21 H          13.2408   29.5699    1.8880 H       1  UNL1        0.2104
     22 C          15.9703   33.0335    0.7937 C.2     1  UNL1        0.2428
     23 O          17.1639   32.8221    0.5724 O.2     1  UNL1       -0.2732
     24 N          15.6770   34.0900    1.6152 N.am    1  UNL1       -0.3025
     25 H          16.4506   34.6679    1.9423 H       1  UNL1        0.1495
     26 C          14.4273   34.7472    1.6257 C.3     1  UNL1        0.0963
     27 C          14.2286   35.7644    2.7098 C.3     1  UNL1        0.0738
     28 C          13.1802   35.3003    3.6694 C.ar    1  UNL1        0.0900
     29 N          13.1451   34.0732    4.1161 N.ar    1  UNL1       -0.2406
     30 C          12.1645   33.9863    5.0812 C.ar    1  UNL1        0.1117
     31 C          11.4251   35.1221    5.3299 C.ar    1  UNL1        0.0577
     32 S          11.9530   36.3538    4.2986 S.2     1  UNL1       -0.0701
     33 C          12.0789   32.8176    5.9727 C.ar    1  UNL1        0.1290
     34 N          10.9962   32.4931    6.6351 N.ar    1  UNL1       -0.2322
     35 C          11.3357   31.4986    7.5373 C.ar    1  UNL1        0.1415
     36 C          12.6930   31.3471    7.7338 C.ar    1  UNL1        0.0606
     37 S          13.4929   31.9191    6.3437 S.2     1  UNL1       -0.0643
     38 C          10.3316   30.7363    8.2578 C.2     1  UNL1        0.2641
     39 O          10.7221   29.8631    9.0102 O.2     1  UNL1       -0.2685
     40 N           9.0394   31.2003    7.9886 N.am    1  UNL1       -0.2996
     41 H           9.0015   31.9700    7.3362 H       1  UNL1        0.1498
     42 C           7.7090   30.8977    8.5293 C.3     1  UNL1        0.0906
     43 C           7.4753   31.3978    9.9466 C.3     1  UNL1        0.0321
     44 C           6.8124   32.7593   10.0777 C.3     1  UNL1        0.0499
     45 S           7.7956   34.2201   10.4949 S.3     1  UNL1       -0.1777
     46 C           8.7665   34.5703    9.0332 C.3     1  UNL1        0.0590
     47 C           9.1133   33.4878   11.4581 C.3     1  UNL1        0.0590
     48 C          11.5924   37.6602   -6.6753 C.2     1  UNL1        0.2638
     49 O          11.7799   36.4697   -6.9522 O.2     1  UNL1       -0.2685
     50 N          12.6158   38.1885   -5.7416 N.am    1  UNL1       -0.2913
     51 H          13.3765   37.5167   -5.7662 H       1  UNL1        0.1503
     52 C          12.1068   39.3575   -8.6393 C.3     1  UNL1        0.0357
     53 C          10.7220   39.3070   -8.5085 C.ar    1  UNL1        0.0315
     54 C           9.8680   40.2285   -9.1792 C.ar    1  UNL1        0.1243
     55 N          10.3849   41.1537  -10.0515 N.pl3   1  UNL1       -0.3428
     56 N           8.6792   40.0825   -8.9619 N.ar    1  UNL1       -0.2154
     57 C           8.3440   39.0360   -8.1579 C.ar    1  UNL1        0.1552
     58 N           9.1657   38.1806   -7.4142 N.ar    1  UNL1       -0.2250
     59 C          10.4374   38.4571   -7.4797 C.ar    1  UNL1        0.1345
     60 H          11.2241   41.6125   -9.6483 H       1  UNL1        0.1437
     61 H           9.6627   41.8437  -10.1548 H       1  UNL1        0.1437
     62 C           6.8927   38.8484   -8.0684 C.3     1  UNL1        0.1226
     63 N           6.5152   37.3900   -7.6809 N.3     1  UNL1       -0.2906
     64 H           5.5210   37.6187   -7.4157 H       1  UNL1        0.1237
     65 C           6.1840   36.1632   -8.5603 C.3     1  UNL1        0.0940
     66 C           6.9802   34.7758   -8.4643 C.3     1  UNL1        0.1439
     67 N           6.6666   34.0115   -9.7420 N.3     1  UNL1       -0.3139
     68 H           6.9111   34.5813  -10.5614 H       1  UNL1        0.1193
     69 H           5.6317   34.0956   -9.8955 H       1  UNL1        0.1193
     70 C           6.5912   34.1722   -6.9713 C.2     1  UNL1        0.2348
     71 N           6.1182   34.9247   -5.9189 N.am    1  UNL1       -0.3277
     72 O           6.7953   32.9828   -6.7109 O.2     1  UNL1       -0.2739
     73 H           6.1337   35.9298   -5.9080 H       1  UNL1        0.1450
     74 H           6.4491   34.5487   -5.0219 H       1  UNL1        0.1450
     75 C           6.2883   40.1651   -7.4800 C.3     1  UNL1        0.1082
     76 C           4.8431   40.0343   -7.1847 C.2     1  UNL1        0.2212
     77 N           4.8317   39.2136   -6.1232 N.am    1  UNL1       -0.3287
     78 O           3.8452   40.3775   -7.7733 O.2     1  UNL1       -0.2753
     79 H           5.5360   39.4925   -5.4486 H       1  UNL1        0.1449
     80 H           3.9675   38.9077   -5.7200 H       1  UNL1        0.1449
     81 C          11.9355   40.3437   -3.8186 C.3     1  UNL1        0.1856
     82 C          12.4278   42.1605   -3.6691 C.ar    1  UNL1        0.1069
     83 C          13.6029   42.9278   -3.7109 C.ar    1  UNL1        0.0910
     84 N          13.2754   44.2998   -3.5814 N.ar    1  UNL1       -0.3340
     85 H          13.8842   45.1072   -3.5481 H       1  UNL1        0.1675
     86 C          11.9358   44.4202   -3.6403 C.ar    1  UNL1        0.1748
     87 N          11.4468   43.2226   -3.4291 N.ar    1  UNL1       -0.2260
     88 O          11.4400   39.4929   -2.4200 O.3     1  UNL1       -0.3227
     89 C          10.0341   38.8433   -2.0866 C.3     1  UNL1        0.2664
     90 O           8.8228   39.6416   -2.3918 O.3     1  UNL1       -0.3260
     91 C           7.6058   38.8403   -2.6468 C.3     1  UNL1        0.1761
     92 C           7.8039   38.2199   -4.0119 C.3     1  UNL1        0.1694
     93 O           6.6791   37.6447   -4.6815 O.3     1  UNL1       -0.3794
     94 C           9.0387   37.3559   -3.9464 C.3     1  UNL1        0.1719
     95 O           8.6731   36.1517   -4.5116 O.3     1  UNL1       -0.3794
     96 C           9.7582   37.2331   -2.5874 C.3     1  UNL1        0.2029
     97 H           7.0004   37.2713   -5.5164 H       1  UNL1        0.2105
     98 H           8.5231   36.2398   -5.4644 H       1  UNL1        0.2105
     99 C           6.3022   39.6414   -2.6115 C.3     1  UNL1        0.1693
    100 O           6.0963   40.4457   -3.7673 O.3     1  UNL1       -0.3794
    101 H           6.9692   40.6254   -4.1894 H       1  UNL1        0.2105
    102 O           8.8887   36.5287   -1.6568 O.3     1  UNL1       -0.3233
    103 C           9.1687   35.2278   -1.0434 C.3     1  UNL1        0.2671
    104 O           8.0454   34.4958   -0.5414 O.3     1  UNL1       -0.3259
    105 C           7.6124   33.2806   -1.1968 C.3     1  UNL1        0.1773
    106 C           8.2282   32.9347   -2.5800 C.3     1  UNL1        0.1829
    107 O           7.4784   33.3148   -3.7643 O.3     1  UNL1       -0.3785
    108 C           9.7015   33.3200   -2.6888 C.3     1  UNL1        0.2311
    109 C          10.2441   34.4051   -1.7647 C.3     1  UNL1        0.2100
    110 O          11.1194   33.7492   -0.8063 O.3     1  UNL1       -0.3767
    111 H           7.2477   34.2511   -3.6532 H       1  UNL1        0.2106
    112 H          11.8518   33.3465   -1.3134 H       1  UNL1        0.2107
    113 C           7.7694   32.0724   -0.2755 C.3     1  UNL1        0.1693
    114 O           8.9145   32.2277    0.5492 O.3     1  UNL1       -0.3794
    115 H           9.6885   31.9706    0.0188 H       1  UNL1        0.2105
    116 O           9.9762   33.7154   -4.0427 O.3     1  UNL1       -0.4332
    117 C          11.0710   33.1388   -4.5740 C.2     1  UNL1        0.3985
    118 N          11.4955   32.1613   -3.7542 N.am    1  UNL1       -0.2950
    119 O          11.6616   33.4771   -5.5850 O.2     1  UNL1       -0.2267
    120 H          11.1766   32.2672   -2.8028 H       1  UNL1        0.1482
    121 H          12.4441   31.8635   -3.9227 H       1  UNL1        0.1482
@<TRIPOS>BOND
     1    52    53    1
     2    53    54   ar
     3    53    59   ar
     4    54    55    1
     5    54    56   ar
     6    55    60    1
     7    55    61    1
     8    56    57   ar
     9    57    58   ar
    10    62    75    1
    11    62    63    1
    12    62    57    1
    13    75    76    1
    14    76    77   am
    15    76    78    2
    16    77    79    1
    17    77    80    1
    18    63    65    1
    19    63    64    1
    20    66    67    1
    21    66    70    1
    22    66    65    1
    23    67    68    1
    24    67    69    1
    25    70    71   am
    26    70    72    2
    27    71    73    1
    28    71    74    1
    29    58    59   ar
    30    59    48    1
    31    48    49    2
    32    48    50   am
    33    50    51    1
    34     1     2    1
    35     1    81    1
    36     1    50    1
    37     2     3    2
    38     2     4   am
    39     4     5    1
    40     6     7    1
    41     6     8    1
    42     6     4    1
    43     8     9    1
    44     9    10    1
    45    11    12    1
    46    11    13    1
    47    11     8    1
    48    13    14    2
    49    13    15   am
    50    15    16    1
    51    17    22    1
    52    17    18    1
    53    17    15    1
    54    22    23    2
    55    22    24   am
    56    24    26    1
    57    24    25    1
    58    26    27    1
    59    27    28    1
    60    28    29   ar
    61    28    32   ar
    62    29    30   ar
    63    30    33    1
    64    30    31   ar
    65    33    34   ar
    66    33    37   ar
    67    34    35   ar
    68    35    38    1
    69    35    36   ar
    70    38    39    2
    71    38    40   am
    72    40    42    1
    73    40    41    1
    74    42    43    1
    75    43    44    1
    76    44    45    1
    77    45    46    1
    78    45    47    1
    79    36    37   ar
    80    31    32   ar
    81    18    19    1
    82    18    20    1
    83    20    21    1
    84    81    88    1
    85    81    82    1
    86    89    90    1
    87    89    96    1
    88    89    88    1
    89    90    91    1
    90    91    92    1
    91    91    99    1
    92    99   100    1
    93   100   101    1
    94    92    94    1
    95    92    93    1
    96    93    97    1
    97    94    95    1
    98    94    96    1
    99    95    98    1
   100    96   102    1
   101   102   103    1
   102   103   104    1
   103   103   109    1
   104   104   105    1
   105   105   113    1
   106   105   106    1
   107   113   114    1
   108   114   115    1
   109   106   108    1
   110   106   107    1
   111   107   111    1
   112   108   116    1
   113   108   109    1
   114   116   117    1
   115   117   118   am
   116   117   119    2
   117   118   120    1
   118   118   121    1
   119   109   110    1
   120   110   112    1
   121    82    83   ar
   122    82    87   ar
   123    83    84   ar
   124    84    85    1
   125    84    86   ar
   126    86    87   ar
#	Name:			CHEMBL467
#	Creating user name:	trannguyen
#	Creation time:		Tue Feb  8 18:26:14 2022


#	Modifying user name:	trannguyen
#	Modification time:	Tue Feb  8 18:26:14 2022

@<TRIPOS>MOLECULE
CHEMBL467
 9 8 0 0 0
SMALL
GASTEIGER

@<TRIPOS>ATOM
      1 N           1.4435   28.2107    9.8079 N.am    1  UNL1       -0.3117
      2 C           1.8874   28.7414   10.9804 C.2     1  UNL1        0.3198
      3 O           2.0817   29.9408   11.1145 O.2     1  UNL1       -0.2509
      4 N           2.0987   27.8249   11.9634 N.am    1  UNL1       -0.1815
      5 O           2.1840   26.4572   11.6263 O.3     1  UNL1       -0.2940
      6 H           1.1752   28.9179    9.1338 H       1  UNL1        0.1465
      7 H           0.7680   27.4645    9.9202 H       1  UNL1        0.1465
      8 H           2.5396   28.1214   12.8275 H       1  UNL1        0.1838
      9 H           2.5179   26.4925   10.7073 H       1  UNL1        0.2414
@<TRIPOS>BOND
     1     1     2   am
     2     1     6    1
     3     1     7    1
     4     2     3    2
     5     2     4   am
     6     4     5    1
     7     4     8    1
     8     5     9    1
#	Name:			CHEMBL468
#	Creating user name:	trannguyen
#	Creation time:		Tue Feb  8 18:26:14 2022


#	Modifying user name:	trannguyen
#	Modification time:	Tue Feb  8 18:26:14 2022

@<TRIPOS>MOLECULE
CHEMBL468
 20 22 0 0 0
SMALL
GASTEIGER

@<TRIPOS>ATOM
      1 N           3.2638   31.4603    8.1823 N.am    1  UNL1       -0.2158
      2 C           3.8180   30.6192    9.1099 C.2     1  UNL1        0.2554
      3 O           4.9887   30.4659    9.4007 O.2     1  UNL1       -0.2695
      4 C           2.7199   29.8487    9.6888 C.ar    1  UNL1        0.0584
      5 C           2.7246   28.8797   10.6726 C.ar    1  UNL1        0.0047
      6 C           1.4946   28.3035   11.0063 C.ar    1  UNL1        0.0001
      7 C           0.3080   28.7022   10.3555 C.ar    1  UNL1        0.0001
      8 C           0.3311   29.6832    9.3589 C.ar    1  UNL1        0.0047
      9 C           1.5574   30.2373    9.0494 C.ar    1  UNL1        0.0584
     10 C           1.9165   31.2577    8.0680 C.2     1  UNL1        0.2554
     11 O           1.1258   31.7936    7.3163 O.2     1  UNL1       -0.2695
     12 O           2.1784   34.1744    4.1145 O.2     1  UNL1       -0.2747
     13 C           2.7582   33.6213    5.0458 C.2     1  UNL1        0.2282
     14 C           3.2012   32.1805    4.9711 C.3     1  UNL1        0.0877
     15 C           4.3278   31.8761    5.9414 C.3     1  UNL1        0.0392
     16 C           4.0525   32.3670    7.3602 C.3     1  UNL1        0.1598
     17 C           3.4471   33.7683    7.4093 C.2     1  UNL1        0.2466
     18 O           3.3046   34.3915    8.4608 O.2     1  UNL1       -0.2729
     19 N           2.9853   34.2860    6.2237 N.am    1  UNL1       -0.2540
     20 H           2.5709   35.2062    6.2808 H       1  UNL1        0.1576
@<TRIPOS>BOND
     1    12    13    2
     2    13    14    1
     3    13    19   am
     4    14    15    1
     5    15    16    1
     6    16     1    1
     7    16    17    1
     8     1     2   am
     9     1    10   am
    10     2     3    2
    11     2     4    1
    12     4     5   ar
    13     4     9   ar
    14     5     6   ar
    15     6     7   ar
    16     7     8   ar
    17     8     9   ar
    18     9    10    1
    19    10    11    2
    20    17    18    2
    21    17    19   am
    22    19    20    1
#	Name:			CHEMBL469912
#	Creating user name:	trannguyen
#	Creation time:		Tue Feb  8 18:26:14 2022


#	Modifying user name:	trannguyen
#	Modification time:	Tue Feb  8 18:26:14 2022

@<TRIPOS>MOLECULE
CHEMBL469912
 39 42 0 0 0
SMALL
GASTEIGER

@<TRIPOS>ATOM
      1 C           5.1475   33.0529    5.3687 C.3     1  UNL1        0.1328
      2 C           4.3558   31.9278    4.6925 C.3     1  UNL1        0.1668
      3 O           5.3264   31.1359    3.9610 O.3     1  UNL1       -0.3317
      4 C           6.5400   31.9149    3.8158 C.3     1  UNL1        0.2363
      5 C           6.2358   33.3229    4.3397 C.3     1  UNL1        0.1804
      6 O           7.3573   34.0103    4.8829 O.3     1  UNL1       -0.3785
      7 H           7.9165   34.2412    4.1083 H       1  UNL1        0.2106
      8 N           6.9992   31.8429    2.4404 N.ar    1  UNL1       -0.2695
      9 C           7.3120   30.7002    1.7543 C.ar    1  UNL1        0.1816
     10 N           7.7817   30.9608    0.5531 N.ar    1  UNL1       -0.2194
     11 C           7.7842   32.3411    0.4500 C.ar    1  UNL1        0.1486
     12 C           8.1609   33.2349   -0.5877 C.ar    1  UNL1        0.1544
     13 N           8.0172   34.5710   -0.3173 N.ar    1  UNL1       -0.2073
     14 C           7.5691   34.9721    0.8846 C.ar    1  UNL1        0.2015
     15 N           7.2026   34.2099    1.9277 N.ar    1  UNL1       -0.2048
     16 C           7.3195   32.9029    1.6319 C.ar    1  UNL1        0.1691
     17 N           8.6301   32.8492   -1.8560 N.pl3   1  UNL1       -0.2884
     18 C           7.8034   33.3139   -2.9618 C.3     1  UNL1        0.1137
     19 C          10.0728   32.9472   -2.0419 C.3     1  UNL1        0.1137
     20 C           5.1811   33.0898    7.8686 C.2     1  UNL1        0.2369
     21 O           4.2940   33.9214    7.9266 O.2     1  UNL1       -0.2737
     22 N           5.6831   32.6222    6.6673 N.am    1  UNL1       -0.3003
     23 H           6.3637   31.8692    6.7360 H       1  UNL1        0.1496
     24 C           5.8018   32.4373    9.1330 C.3     1  UNL1        0.1327
     25 N           5.2083   33.0372   10.3573 N.3     1  UNL1       -0.3148
     26 H           5.4214   34.0353   10.3584 H       1  UNL1        0.1192
     27 H           5.6892   32.6461   11.1676 H       1  UNL1        0.1192
     28 C           5.7919   30.8919    9.1692 C.3     1  UNL1        0.0512
     29 C           2.1221   28.9875   10.4391 C.ar    1  UNL1        0.1387
     30 C           3.3559   28.3931   10.6922 C.ar    1  UNL1        0.0366
     31 C           4.5313   28.9986   10.2475 C.ar    1  UNL1       -0.0011
     32 C           4.4953   30.2086    9.5405 C.ar    1  UNL1       -0.0201
     33 C           3.2485   30.7429    9.2014 C.ar    1  UNL1       -0.0011
     34 C           2.0711   30.1454    9.6645 C.ar    1  UNL1        0.0366
     35 C          -0.1982   28.8752   10.0757 C.3     1  UNL1        0.2525
     36 O           0.9208   28.4955   10.8731 O.3     1  UNL1       -0.4714
     37 C           3.2646   32.4203    3.7238 C.3     1  UNL1        0.1685
     38 O           1.9596   31.9909    4.1016 O.3     1  UNL1       -0.3794
     39 H           1.8048   31.1045    3.7324 H       1  UNL1        0.2105
@<TRIPOS>BOND
     1    35    36    1
     2    36    29    1
     3    29    30   ar
     4    29    34   ar
     5    30    31   ar
     6    31    32   ar
     7    32    28    1
     8    32    33   ar
     9    24    25    1
    10    24    20    1
    11    24    28    1
    12    25    26    1
    13    25    27    1
    14    20    21    2
    15    20    22   am
    16    22    23    1
    17     1     2    1
    18     1     5    1
    19     1    22    1
    20     2    37    1
    21     2     3    1
    22    37    38    1
    23    38    39    1
    24     3     4    1
    25     4     5    1
    26     4     8    1
    27     8     9   ar
    28     8    16   ar
    29     9    10   ar
    30    10    11   ar
    31    11    12   ar
    32    11    16   ar
    33    12    17    1
    34    12    13   ar
    35    17    18    1
    36    17    19    1
    37    13    14   ar
    38    14    15   ar
    39    15    16   ar
    40     5     6    1
    41     6     7    1
    42    33    34   ar
#	Name:			CHEMBL469
#	Creating user name:	trannguyen
#	Creation time:		Tue Feb  8 18:26:14 2022


#	Modifying user name:	trannguyen
#	Modification time:	Tue Feb  8 18:26:14 2022

@<TRIPOS>MOLECULE
CHEMBL469
 20 22 0 0 0
SMALL
GASTEIGER

@<TRIPOS>ATOM
      1 C           3.6924   31.2837    9.0976 C.ar    1  UNL1        0.0991
      2 C           2.4447   31.5708    8.5388 C.ar    1  UNL1        0.0216
      3 C           1.5877   30.4403    8.6892 C.ar    1  UNL1        0.0149
      4 C           2.3300   29.5043    9.3517 C.ar    1  UNL1        0.0475
      5 N           3.5848   30.0031    9.5404 N.ar    1  UNL1       -0.3276
      6 C           4.4742   29.0765   10.2235 C.3     1  UNL1        0.1068
      7 C           3.6910   27.7497   10.1455 C.3     1  UNL1        0.0415
      8 C           2.2050   28.1398    9.9275 C.3     1  UNL1        0.1388
      9 C           1.4447   28.1002   11.2438 C.2     1  UNL1        0.3190
     10 O           2.0186   28.0613   12.3306 O.2     1  UNL1       -0.2499
     11 O           0.0985   28.1949   11.1722 O.3     1  UNL1       -0.4799
     12 H          -0.2599   28.1955   10.2638 H       1  UNL1        0.2951
     13 O           4.9251   32.9922   10.1323 O.2     1  UNL1       -0.2850
     14 C           4.8731   32.1130    9.2723 C.2     1  UNL1        0.2112
     15 C           6.0592   31.9335    8.3861 C.ar    1  UNL1        0.0404
     16 C           6.0739   32.4133    7.0694 C.ar    1  UNL1        0.0032
     17 C           7.2071   32.2384    6.2717 C.ar    1  UNL1        0.0001
     18 C           8.3196   31.5651    6.7753 C.ar    1  UNL1        0.0000
     19 C           8.2979   31.0530    8.0722 C.ar    1  UNL1        0.0001
     20 C           7.1693   31.2316    8.8755 C.ar    1  UNL1        0.0032
@<TRIPOS>BOND
     1    13    14    2
     2    14    15    1
     3    14     1    1
     4    15    16   ar
     5    15    20   ar
     6    16    17   ar
     7    17    18   ar
     8    18    19   ar
     9    19    20   ar
    10     1     2   ar
    11     1     5   ar
    12     2     3   ar
    13     3     4   ar
    14     4     5   ar
    15     4     8    1
    16     5     6    1
    17     6     7    1
    18     7     8    1
    19     8     9    1
    20     9    10    2
    21     9    11    1
    22    11    12    1
#	Name:			CHEMBL46
#	Creating user name:	trannguyen
#	Creation time:		Tue Feb  8 18:26:14 2022


#	Modifying user name:	trannguyen
#	Modification time:	Tue Feb  8 18:26:14 2022

@<TRIPOS>MOLECULE
CHEMBL46
 22 25 0 0 0
SMALL
GASTEIGER

@<TRIPOS>ATOM
      1 C           4.2985   32.9459    7.0177 C.3     1  UNL1        0.0849
      2 C           5.6335   32.2093    7.2749 C.3     1  UNL1        0.0159
      3 C           5.7646   31.6785    8.7072 C.3     1  UNL1        0.0444
      4 C           4.5207   30.9510    9.0744 C.ar    1  UNL1        0.0398
      5 C           3.2781   31.1373    8.5015 C.ar    1  UNL1        0.0478
      6 C           2.3697   30.2631    9.1663 C.ar    1  UNL1        0.0196
      7 C           0.9865   30.0078    9.0471 C.ar    1  UNL1        0.0016
      8 C           0.3782   29.0609    9.8783 C.ar    1  UNL1        0.0001
      9 C           1.1267   28.3622   10.8184 C.ar    1  UNL1        0.0015
     10 C           2.4984   28.5906   10.9562 C.ar    1  UNL1        0.0172
     11 C           3.1041   29.5500   10.1253 C.ar    1  UNL1        0.0598
     12 N           4.4129   29.9865   10.0440 N.ar    1  UNL1       -0.3285
     13 C           5.5170   29.5019   10.8451 C.3     1  UNL1        0.1301
     14 C           3.0765   32.0918    7.4140 C.2     1  UNL1        0.1756
     15 O           1.9844   32.2509    6.8795 O.2     1  UNL1       -0.2912
     16 C           4.1640   33.3482    5.5398 C.3     1  UNL1        0.1149
     17 C           3.2555   30.7991    3.9879 C.3     1  UNL1        0.0718
     18 C           4.5863   31.4516    3.8994 C.ar    1  UNL1        0.1208
     19 N           5.5774   31.0318    3.1369 N.ar    1  UNL1       -0.2293
     20 C           6.6291   31.8688    3.3859 C.ar    1  UNL1        0.1188
     21 C           6.2831   32.8145    4.3187 C.ar    1  UNL1        0.0977
     22 N           4.9727   32.5563    4.6272 N.ar    1  UNL1       -0.3132
@<TRIPOS>BOND
     1    17    18    1
     2    18    19   ar
     3    18    22   ar
     4    19    20   ar
     5    20    21   ar
     6    21    22   ar
     7    22    16    1
     8    16     1    1
     9     1     2    1
    10     1    14    1
    11     2     3    1
    12     3     4    1
    13     4     5   ar
    14     4    12   ar
    15     5     6   ar
    16     5    14    1
    17     6     7   ar
    18     6    11   ar
    19     7     8   ar
    20     8     9   ar
    21     9    10   ar
    22    10    11   ar
    23    11    12   ar
    24    12    13    1
    25    14    15    2
#	Name:			CHEMBL471
#	Creating user name:	trannguyen
#	Creation time:		Tue Feb  8 18:26:14 2022


#	Modifying user name:	trannguyen
#	Modification time:	Tue Feb  8 18:26:14 2022

@<TRIPOS>MOLECULE
CHEMBL471
 21 21 0 0 0
SMALL
GASTEIGER

@<TRIPOS>ATOM
      1 C           2.2870   31.7311    7.4024 C.ar    1  UNL1        0.0057
      2 C           2.0235   31.1961    6.1289 C.ar    1  UNL1       -0.0006
      3 C           2.8439   31.4898    5.0363 C.ar    1  UNL1        0.0156
      4 C           3.9236   32.3510    5.1950 C.ar    1  UNL1        0.0644
      5 C           4.2112   32.8875    6.4457 C.ar    1  UNL1        0.0156
      6 C           3.3902   32.5909    7.5373 C.ar    1  UNL1       -0.0006
      7 C           1.3835   31.4492    8.5962 C.3     1  UNL1        0.1484
      8 O           0.1495   32.1624    8.4604 O.3     1  UNL1       -0.3786
      9 H           0.3504   33.0724    8.7509 H       1  UNL1        0.2108
     10 C           1.9963   31.7627    9.9904 C.3     1  UNL1        0.1028
     11 N           1.9123   30.6355   10.9456 N.3     1  UNL1       -0.2962
     12 H           2.4883   30.8359   11.7666 H       1  UNL1        0.1233
     13 C           3.8627   29.2136   10.2463 C.3     1  UNL1        0.0171
     14 C           2.3394   29.3586   10.3429 C.3     1  UNL1        0.0541
     15 C           1.7794   28.1889   11.1581 C.3     1  UNL1        0.0171
     16 N           4.7536   32.6776    4.0839 N.pl3   1  UNL1       -0.2187
     17 H           4.2566   32.8111    3.2011 H       1  UNL1        0.1734
     18 S           6.1145   31.7133    3.8135 S.O2    1  UNL1        0.0558
     19 C           6.9768   32.6574    2.5759 C.3     1  UNL1        0.1996
     20 O           6.9165   31.6354    5.0051 O.2     1  UNL1       -0.1544
     21 O           5.6066   30.5108    3.1692 O.2     1  UNL1       -0.1544
@<TRIPOS>BOND
     1    13    14    1
     2    14    15    1
     3    14    11    1
     4    11    10    1
     5    11    12    1
     6    10     7    1
     7     7     8    1
     8     7     1    1
     9     8     9    1
    10     1     2   ar
    11     1     6   ar
    12     2     3   ar
    13     3     4   ar
    14     4    16    1
    15     4     5   ar
    16    16    18    1
    17    16    17    1
    18    18    19    1
    19    18    20    2
    20    18    21    2
    21     5     6   ar
#	Name:			CHEMBL47244
#	Creating user name:	trannguyen
#	Creation time:		Tue Feb  8 18:26:14 2022


#	Modifying user name:	trannguyen
#	Modification time:	Tue Feb  8 18:26:14 2022

@<TRIPOS>MOLECULE
CHEMBL47244
 22 26 0 0 0
SMALL
GASTEIGER

@<TRIPOS>ATOM
      1 C           1.9820   30.5374    9.7338 C.3     1  UNL1        0.0750
      2 C           2.9855   30.6190    8.5392 C.3     1  UNL1        0.1311
      3 C           2.0146   31.0125    7.4671 C.2     1  UNL1        0.3192
      4 O           2.1799   30.8835    6.2668 O.2     1  UNL1       -0.2500
      5 O           0.9469   31.6817    8.0424 O.3     1  UNL1       -0.4481
      6 C           1.1999   31.8213    9.4669 C.3     1  UNL1        0.2128
      7 C           2.0084   33.1535    9.6658 C.3     1  UNL1        0.2136
      8 O           2.4509   33.5036   10.9768 O.3     1  UNL1       -0.4467
      9 C           3.5762   34.3104   10.8445 C.2     1  UNL1        0.3441
     10 O           3.9617   35.1041   11.6873 O.2     1  UNL1       -0.2474
     11 C           4.2804   34.0369    9.5456 C.3     1  UNL1        0.2111
     12 O           5.5708   33.5107   10.1486 O.3     1  UNL1       -0.3448
     13 C           5.5420   33.5292    8.7913 C.3     1  UNL1        0.1533
     14 C           5.2927   32.1201    8.1600 C.3     1  UNL1        0.0602
     15 C           3.9788   31.7426    8.8594 C.3     1  UNL1        0.1071
     16 O           4.4014   31.3276   10.1980 O.3     1  UNL1       -0.3859
     17 C           3.2804   33.1433    8.8418 C.3     1  UNL1        0.0985
     18 C           2.9869   33.8316    7.4643 C.3     1  UNL1        0.0091
     19 H           5.1447   31.8792   10.5160 H       1  UNL1        0.2103
     20 C           1.8590   28.0543    9.8232 C.2     1  UNL1       -0.0090
     21 C           1.1925   29.2226    9.7849 C.2     1  UNL1       -0.0400
     22 C          -0.3129   29.2261    9.8230 C.3     1  UNL1        0.0265
@<TRIPOS>BOND
     1    20    21    2
     2    21    22    1
     3     1     2    1
     4     1     6    1
     5     1    21    1
     6     2     3    1
     7     2    15    1
     8     3     4    2
     9     3     5    1
    10     5     6    1
    11     6     7    1
    12     7     8    1
    13     7    17    1
    14     8     9    1
    15     9    10    2
    16    11     9    1
    17    11    12    1
    18    11    13    1
    19    11    17    1
    20    12    13    1
    21    13    14    1
    22    14    15    1
    23    15    16    1
    24    15    17    1
    25    16    19    1
    26    17    18    1
#	Name:			CHEMBL472
#	Creating user name:	trannguyen
#	Creation time:		Tue Feb  8 18:26:14 2022


#	Modifying user name:	trannguyen
#	Modification time:	Tue Feb  8 18:26:14 2022

@<TRIPOS>MOLECULE
CHEMBL472
 36 38 0 0 0
SMALL
GASTEIGER

@<TRIPOS>ATOM
      1 C           3.6235   32.0694    3.7979 C.ar    1  UNL1       -0.0204
      2 C           4.6060   31.0667    3.8207 C.ar    1  UNL1       -0.0028
      3 C           5.9541   31.3845    3.6447 C.ar    1  UNL1        0.0199
      4 C           6.3231   32.7097    3.4062 C.ar    1  UNL1        0.1253
      5 C           5.3458   33.7034    3.3242 C.ar    1  UNL1        0.0199
      6 C           4.0062   33.3902    3.5458 C.ar    1  UNL1       -0.0028
      7 S           8.0351   33.1238    3.1806 S.O2    1  UNL1        0.0768
      8 O           8.5398   32.3143    2.0922 O.2     1  UNL1       -0.1498
      9 O           8.1648   34.5642    3.1562 O.2     1  UNL1       -0.1498
     10 N           8.7789   32.4932    4.5302 N.am    1  UNL1       -0.1693
     11 C           8.5614   32.8831    5.8360 C.2     1  UNL1        0.3194
     12 O           7.7882   33.7650    6.1833 O.2     1  UNL1       -0.2512
     13 N           9.2831   32.1383    6.7141 N.am    1  UNL1       -0.2894
     14 H           9.4460   31.7692    4.2934 H       1  UNL1        0.1781
     15 H           9.9983   31.5380    6.3391 H       1  UNL1        0.1509
     16 C           9.2248   32.3570    8.1552 C.3     1  UNL1        0.0731
     17 C           9.1702   31.0129    8.8892 C.3     1  UNL1        0.0196
     18 C          10.4823   30.2404    8.7577 C.3     1  UNL1        0.0017
     19 C          11.6689   31.0722    9.2349 C.3     1  UNL1        0.0001
     20 C          11.7354   32.4411    8.5602 C.3     1  UNL1        0.0017
     21 C          10.4106   33.1964    8.6473 C.3     1  UNL1        0.0196
     22 C           2.1676   31.7293    4.0033 C.3     1  UNL1        0.0476
     23 C           1.6793   32.1241    5.4003 C.3     1  UNL1        0.0944
     24 C           1.8506   31.3045    7.7208 C.2     1  UNL1        0.2488
     25 O           0.7395   31.7373    7.9959 O.2     1  UNL1       -0.2700
     26 N           2.3977   31.4351    6.4542 N.am    1  UNL1       -0.3004
     27 H           3.3183   31.0784    6.2396 H       1  UNL1        0.1498
     28 C           4.0605   30.9891    8.9707 C.ar    1  UNL1        0.1431
     29 C           4.8231   30.1999    9.8513 C.ar    1  UNL1        0.0379
     30 C           4.2657   29.1093   10.5212 C.ar    1  UNL1        0.0145
     31 C           2.9330   28.7913   10.3093 C.ar    1  UNL1        0.0580
     32 CL          2.2371   27.4251   11.0892 Cl      1  UNL1       -0.0822
     33 C           2.1609   29.5505    9.4339 C.ar    1  UNL1        0.0190
     34 C           2.7107   30.6580    8.7530 C.ar    1  UNL1        0.0881
     35 C           5.7526   32.6684    9.1136 C.3     1  UNL1        0.2525
     36 O           4.8137   31.9376    8.3335 O.3     1  UNL1       -0.4713
@<TRIPOS>BOND
     1    35    36    1
     2    36    28    1
     3    28    29   ar
     4    28    34   ar
     5    29    30   ar
     6    30    31   ar
     7    31    32    1
     8    31    33   ar
     9    33    34   ar
    10    34    24    1
    11    24    25    2
    12    24    26   am
    13    26    23    1
    14    26    27    1
    15    23    22    1
    16    22     1    1
    17     1     2   ar
    18     1     6   ar
    19     2     3   ar
    20     3     4   ar
    21     4     7    1
    22     4     5   ar
    23     7     8    2
    24     7     9    2
    25     7    10    1
    26    10    11   am
    27    10    14    1
    28    11    12    2
    29    11    13   am
    30    13    16    1
    31    13    15    1
    32    16    17    1
    33    16    21    1
    34    17    18    1
    35    18    19    1
    36    19    20    1
    37    20    21    1
    38     5     6   ar
#	Name:			CHEMBL475534
#	Creating user name:	trannguyen
#	Creation time:		Tue Feb  8 18:26:14 2022


#	Modifying user name:	trannguyen
#	Modification time:	Tue Feb  8 18:26:14 2022

@<TRIPOS>MOLECULE
CHEMBL475534
 27 28 0 0 0
SMALL
GASTEIGER

@<TRIPOS>ATOM
      1 C           4.0847   32.7316    6.9422 C.2     1  UNL1        0.0707
      2 C           5.4322   32.8689    7.0519 C.2     1  UNL1        0.0283
      3 C           6.4549   32.5862    5.9771 C.3     1  UNL1        0.0470
      4 N           5.9743   33.3533    8.2322 N.pl3   1  UNL1       -0.3192
      5 C           5.2536   33.9227    9.2662 C.2     1  UNL1        0.0283
      6 C           6.0756   34.5631   10.3558 C.3     1  UNL1        0.0470
      7 C           3.8980   33.8790    9.2394 C.2     1  UNL1        0.0707
      8 C           3.1768   33.1207    8.1186 C.3     1  UNL1        0.0813
      9 H           6.9848   33.4795    8.2503 H       1  UNL1        0.1516
     10 C           2.4639   31.8858    8.6897 C.ar    1  UNL1       -0.0123
     11 C           1.0662   31.7489    8.5786 C.ar    1  UNL1       -0.0035
     12 C           0.4028   30.6364    9.1099 C.ar    1  UNL1        0.0013
     13 C           1.1245   29.6363    9.7563 C.ar    1  UNL1        0.0199
     14 C           2.5104   29.7687    9.8541 C.ar    1  UNL1        0.0915
     15 C           3.1896   30.8744    9.3377 C.ar    1  UNL1        0.0163
     16 N           3.2746   28.7208   10.4997 N.pl3   1  UNL1       -0.1853
     17 O           4.3645   28.4236    9.9931 O.2     1  UNL1       -0.1725
     18 O           2.7802   28.2056   11.5110 O.co2   1  UNL1       -0.7770
     19 C           3.4224   32.2681    5.6873 C.2     1  UNL1        0.3387
     20 O           3.2629   31.0950    5.3528 O.2     1  UNL1       -0.2452
     21 O           3.0639   33.3427    4.9432 O.3     1  UNL1       -0.4456
     22 C           4.7282   33.4903    3.1287 C.3     1  UNL1        0.0513
     23 C           3.2852   33.2475    3.5293 C.3     1  UNL1        0.2089
     24 C           3.0525   34.5553   10.2658 C.2     1  UNL1        0.3388
     25 O           2.8214   34.1292   11.3898 O.2     1  UNL1       -0.2452
     26 O           2.5968   35.7344    9.7719 O.3     1  UNL1       -0.4415
     27 C           1.3551   36.2006   10.3042 C.3     1  UNL1        0.2559
@<TRIPOS>UNITY_ATOM_ATTR
18 1
charge -1
@<TRIPOS>BOND
     1    22    23    1
     2    23    21    1
     3    21    19    1
     4    19    20    2
     5    19     1    1
     6     1     2    2
     7     1     8    1
     8     2     3    1
     9     2     4    1
    10     4     5    1
    11     4     9    1
    12     5     6    1
    13     5     7    2
    14     7    24    1
    15     7     8    1
    16    24    25    2
    17    24    26    1
    18    26    27    1
    19     8    10    1
    20    10    11   ar
    21    10    15   ar
    22    11    12   ar
    23    12    13   ar
    24    13    14   ar
    25    14    16    1
    26    14    15   ar
    27    16    17    2
    28    16    18    1
#	Name:			CHEMBL476
#	Creating user name:	trannguyen
#	Creation time:		Tue Feb  8 18:26:14 2022


#	Modifying user name:	trannguyen
#	Modification time:	Tue Feb  8 18:26:14 2022

@<TRIPOS>MOLECULE
CHEMBL476
 16 16 0 0 0
SMALL
GASTEIGER

@<TRIPOS>ATOM
      1 C           3.2604   29.6649   10.2494 C.ar    1  UNL1        0.1869
      2 N           4.5048   29.2984    9.7992 N.ar    1  UNL1       -0.3188
      3 H           5.1910   29.9462    9.4408 H       1  UNL1        0.1690
      4 C           4.6348   27.9495    9.9395 C.ar    1  UNL1        0.1763
      5 N           3.5456   27.4086   10.4348 N.ar    1  UNL1       -0.2178
      6 C           2.6619   28.4727   10.6217 C.ar    1  UNL1        0.1714
      7 C           1.3131   28.2993   11.1555 C.2     1  UNL1        0.2636
      8 N           0.3683   29.0320   10.4889 N.am    1  UNL1       -0.3240
      9 O           1.0123   27.5841   12.1012 O.2     1  UNL1       -0.2686
     10 H           0.6501   29.6106    9.7071 H       1  UNL1        0.1453
     11 H          -0.5941   28.9815   10.7825 H       1  UNL1        0.1453
     12 N           2.2775   31.3276    9.1969 N.2     1  UNL1       -0.0756
     13 N           2.8428   30.9487   10.2416 N.2     1  UNL1       -0.1132
     14 C           3.1366   33.5017    8.8517 C.3     1  UNL1        0.1358
     15 N           1.9934   32.6741    9.1976 N.pl3   1  UNL1       -0.2115
     16 C           1.0893   33.2055   10.2147 C.3     1  UNL1        0.1358
@<TRIPOS>BOND
     1    14    15    1
     2    15    16    1
     3    15    12    1
     4    12    13    2
     5    13     1    1
     6     1     2   ar
     7     1     6   ar
     8     2     3    1
     9     2     4   ar
    10     4     5   ar
    11     5     6   ar
    12     6     7    1
    13     7     8   am
    14     7     9    2
    15     8    10    1
    16     8    11    1
#	Name:			CHEMBL479
#	Creating user name:	trannguyen
#	Creation time:		Tue Feb  8 18:26:14 2022


#	Modifying user name:	trannguyen
#	Modification time:	Tue Feb  8 18:26:14 2022

@<TRIPOS>MOLECULE
CHEMBL479
 25 28 0 0 0
SMALL
GASTEIGER

@<TRIPOS>ATOM
      1 C           2.4092   34.8652   10.0559 C.ar    1  UNL1        0.0265
      2 C           3.7991   35.0187    9.9871 C.ar    1  UNL1        0.0067
      3 C           4.6145   33.9026    9.8130 C.ar    1  UNL1        0.0082
      4 C           4.0752   32.6299    9.6395 C.ar    1  UNL1        0.0431
      5 C           2.6743   32.4624    9.5828 C.ar    1  UNL1        0.0581
      6 C           1.8683   33.5937    9.8375 C.ar    1  UNL1        0.0215
      7 N           2.0946   31.1908    9.3563 N.pl3   1  UNL1       -0.2860
      8 C           2.7400   29.9676    9.6610 C.ar    1  UNL1        0.0576
      9 C           1.9929   28.8221    9.9851 C.ar    1  UNL1        0.0153
     10 C           2.6043   27.5976   10.2564 C.ar    1  UNL1        0.0013
     11 C           3.9957   27.4924   10.2109 C.ar    1  UNL1        0.0006
     12 C           4.7553   28.6306    9.9629 C.ar    1  UNL1        0.0077
     13 C           4.1477   29.8683    9.7170 C.ar    1  UNL1        0.0431
     14 S           5.2119   31.2717    9.4427 S.3     1  UNL1       -0.0844
     15 C          -0.2910   35.4120   10.6047 C.3     1  UNL1        0.0742
     16 S           1.3144   36.2405   10.3891 S.3     1  UNL1       -0.1127
     17 C           1.1463   31.1339    8.1933 C.3     1  UNL1        0.0970
     18 C           1.8156   31.0821    6.7923 C.3     1  UNL1        0.0377
     19 C           2.3126   32.4052    6.0659 C.3     1  UNL1        0.0593
     20 C           3.8424   32.5764    6.0784 C.3     1  UNL1        0.0161
     21 C           4.5403   31.7381    5.0155 C.3     1  UNL1        0.0028
     22 C           3.8591   31.7979    3.6486 C.3     1  UNL1        0.0174
     23 C           2.3291   31.8107    3.6887 C.3     1  UNL1        0.0721
     24 N           1.7593   32.6863    4.7149 N.3     1  UNL1       -0.2727
     25 C           1.9542   34.0902    4.2890 C.3     1  UNL1        0.0896
@<TRIPOS>BOND
     1    15    16    1
     2    16     1    1
     3     1     2   ar
     4     1     6   ar
     5     2     3   ar
     6     3     4   ar
     7     4     5   ar
     8     4    14    1
     9     5     6   ar
    10     5     7    1
    11     7    17    1
    12     7     8    1
    13    17    18    1
    14    18    19    1
    15    19    20    1
    16    19    24    1
    17    20    21    1
    18    21    22    1
    19    22    23    1
    20    23    24    1
    21    24    25    1
    22     8     9   ar
    23     8    13   ar
    24     9    10   ar
    25    10    11   ar
    26    11    12   ar
    27    12    13   ar
    28    13    14    1
#	Name:			CHEMBL47
#	Creating user name:	trannguyen
#	Creation time:		Tue Feb  8 18:26:14 2022


#	Modifying user name:	trannguyen
#	Modification time:	Tue Feb  8 18:26:14 2022

@<TRIPOS>MOLECULE
CHEMBL47
 32 33 0 0 0
SMALL
GASTEIGER

@<TRIPOS>ATOM
      1 C           2.3235   32.3301    4.6486 C.3     1  UNL1        0.0340
      2 C           3.0708   32.0573    5.9322 C.ar    1  UNL1        0.0105
      3 C           4.3496   32.6111    6.1947 C.ar    1  UNL1        0.0107
      4 C           5.0289   33.4923    5.1810 C.3     1  UNL1        0.0340
      5 C           4.9424   32.3803    7.4561 C.ar    1  UNL1        0.1297
      6 C           4.2999   31.6029    8.4374 C.ar    1  UNL1        0.0105
      7 C           3.0126   31.0629    8.1829 C.ar    1  UNL1        0.0104
      8 C           2.2853   30.2602    9.2273 C.3     1  UNL1        0.0340
      9 C           2.4419   31.2901    6.9197 C.ar    1  UNL1        0.1252
     10 O           1.2025   30.7636    6.6109 O.3     1  UNL1       -0.5062
     11 C           4.9387   31.4091    9.7882 C.3     1  UNL1        0.0328
     12 C           6.3506   31.9615    9.8578 C.3     1  UNL1        0.0448
     13 C           6.4874   33.2664    9.0673 C.3     1  UNL1        0.1335
     14 C           5.5541   34.4107    9.5152 C.3     1  UNL1        0.0436
     15 O           6.1730   32.9722    7.6820 O.3     1  UNL1       -0.4832
     16 H           1.0213   30.0181    7.1823 H       1  UNL1        0.2922
     17 C           7.9824   33.7395    9.1007 C.3     1  UNL1        0.0400
     18 C           8.9591   32.8387    9.8846 C.3     1  UNL1        0.0036
     19 C           9.9379   32.0179    9.0206 C.3     1  UNL1        0.0001
     20 C           9.4713   31.6169    7.5997 C.3     1  UNL1        0.0000
     21 C           8.9222   30.1859    7.5930 C.3     1  UNL1        0.0000
     22 C          10.6722   31.7647    6.6259 C.3     1  UNL1        0.0000
     23 C          10.3758   32.5476    5.3401 C.3     1  UNL1        0.0000
     24 C           9.0285   33.2891    5.4380 C.3     1  UNL1        0.0000
     25 C           9.0877   34.7770    5.0238 C.3     1  UNL1        0.0000
     26 C           8.7935   35.6828    6.2347 C.3     1  UNL1        0.0000
     27 C           8.0790   35.1048    3.8903 C.3     1  UNL1        0.0000
     28 C           8.4282   34.6361    2.4681 C.3     1  UNL1        0.0000
     29 C           7.2921   34.0835    1.5996 C.3     1  UNL1        0.0000
     30 C           7.2531   32.5591    1.3739 C.3     1  UNL1        0.0000
     31 C           8.4647   32.1406    0.5299 C.3     1  UNL1        0.0000
     32 C           7.2508   31.7583    2.6780 C.3     1  UNL1        0.0000
@<TRIPOS>BOND
     1     1     2    1
     2     2     3   ar
     3     2     9   ar
     4     3     4    1
     5     3     5   ar
     6     5     6   ar
     7     5    15    1
     8     6     7   ar
     9     6    11    1
    10     7     8    1
    11     7     9   ar
    12     9    10    1
    13    10    16    1
    14    11    12    1
    15    12    13    1
    16    13    14    1
    17    13    17    1
    18    13    15    1
    19    17    18    1
    20    18    19    1
    21    20    21    1
    22    20    22    1
    23    20    19    1
    24    22    23    1
    25    23    24    1
    26    25    26    1
    27    25    27    1
    28    25    24    1
    29    27    28    1
    30    28    29    1
    31    29    30    1
    32    30    31    1
    33    30    32    1
#	Name:			CHEMBL480
#	Creating user name:	trannguyen
#	Creation time:		Tue Feb  8 18:26:14 2022


#	Modifying user name:	trannguyen
#	Modification time:	Tue Feb  8 18:26:14 2022

@<TRIPOS>MOLECULE
CHEMBL480
 26 28 0 0 0
SMALL
GASTEIGER

@<TRIPOS>ATOM
      1 C           5.4398   32.4944    6.6458 C.3     1  UNL1        0.0355
      2 C           4.2980   32.3033    5.6821 C.ar    1  UNL1        0.0266
      3 C           3.0812   31.7641    6.1530 C.ar    1  UNL1        0.1376
      4 C           2.0045   31.6106    5.2873 C.ar    1  UNL1        0.0572
      5 C           2.1566   32.0346    3.9835 C.ar    1  UNL1        0.1016
      6 N           3.2932   32.5668    3.4970 N.ar    1  UNL1       -0.2473
      7 C           4.3532   32.7133    4.3392 C.ar    1  UNL1        0.0708
      8 O           3.0603   31.3495    7.4596 O.3     1  UNL1       -0.4668
      9 C           1.8077   31.3671    8.1586 C.3     1  UNL1        0.3081
     10 C           1.7753   30.4080    9.3457 C.3     1  UNL1        0.4380
     11 F           1.7815   31.0375   10.5395 F       1  UNL1       -0.1663
     12 F           0.6683   29.6281    9.3045 F       1  UNL1       -0.1663
     13 F           2.8472   29.5797    9.3197 F       1  UNL1       -0.1663
     14 C           5.5743   33.3184    3.6923 C.3     1  UNL1        0.1308
     15 S           6.8087   32.0444    3.2863 S.3     1  UNL1        0.0395
     16 O           6.0875   30.6542    3.0982 O.3     1  UNL1       -0.1532
     17 C           7.1372   32.5967    1.6729 C.ar    1  UNL1        0.1864
     18 N           7.5074   31.8342    0.6630 N.ar    1  UNL1       -0.2201
     19 C           7.5884   32.6877   -0.4124 C.ar    1  UNL1        0.0990
     20 C           7.8864   32.4109   -1.7548 C.ar    1  UNL1        0.0206
     21 C           7.8954   33.4688   -2.6734 C.ar    1  UNL1        0.0016
     22 C           7.6304   34.7774   -2.2610 C.ar    1  UNL1        0.0016
     23 C           7.3391   35.0750   -0.9246 C.ar    1  UNL1        0.0186
     24 C           7.3150   34.0003   -0.0345 C.ar    1  UNL1        0.0760
     25 N           7.0356   33.9079    1.3010 N.ar    1  UNL1       -0.3313
     26 H           6.7875   34.6624    1.9337 H       1  UNL1        0.1679
@<TRIPOS>BOND
     1     1     2    1
     2     2     3   ar
     3     2     7   ar
     4     3     8    1
     5     3     4   ar
     6     8     9    1
     7     9    10    1
     8    10    11    1
     9    10    12    1
    10    10    13    1
    11     4     5   ar
    12     5     6   ar
    13     6     7   ar
    14     7    14    1
    15    14    15    1
    16    15    16    1
    17    15    17    1
    18    17    18   ar
    19    17    25   ar
    20    18    19   ar
    21    19    20   ar
    22    19    24   ar
    23    20    21   ar
    24    21    22   ar
    25    22    23   ar
    26    23    24   ar
    27    24    25   ar
    28    25    26    1
#	Name:			CHEMBL481
#	Creating user name:	trannguyen
#	Creation time:		Tue Feb  8 18:26:14 2022


#	Modifying user name:	trannguyen
#	Modification time:	Tue Feb  8 18:26:14 2022

@<TRIPOS>MOLECULE
CHEMBL481
 44 50 0 0 0
SMALL
GASTEIGER

@<TRIPOS>ATOM
      1 C           8.2136   34.3983   -2.6737 C.ar    1  UNL1       -0.0213
      2 C           7.9501   33.8954   -1.4110 C.ar    1  UNL1        0.0157
      3 C           7.5519   34.7772   -0.4098 C.ar    1  UNL1        0.0946
      4 N           7.3267   36.0867   -0.5250 N.ar    1  UNL1       -0.2442
      5 C           7.5175   36.5816   -1.7446 C.ar    1  UNL1        0.0812
      6 C           7.2533   37.9318   -1.9117 C.ar    1  UNL1        0.0222
      7 C           7.4028   38.5489   -3.1476 C.ar    1  UNL1        0.0392
      8 C           7.8303   37.7895   -4.2260 C.ar    1  UNL1        0.1501
      9 C           8.1509   36.4422   -4.0750 C.ar    1  UNL1        0.0388
     10 C           7.9704   35.7923   -2.8498 C.ar    1  UNL1        0.0165
     11 C           7.3221   34.0178    0.7997 C.ar    1  UNL1        0.0799
     12 C           6.9394   34.4456    2.0027 C.ar    1  UNL1        0.0172
     13 C           6.6621   33.4631    3.0353 C.ar    1  UNL1        0.0175
     14 C           6.8463   32.1542    2.7854 C.ar    1  UNL1        0.0762
     15 C           7.3467   31.6882    1.4462 C.ar    1  UNL1        0.2604
     16 O           7.5294   30.4978    1.2170 O.2     1  UNL1       -0.2672
     17 N           7.5402   32.6867    0.5285 N.ar    1  UNL1       -0.2900
     18 C           7.9943   32.4987   -0.8579 C.3     1  UNL1        0.1370
     19 C           6.5283   31.0872    3.7671 C.3     1  UNL1        0.2396
     20 O           6.0722   31.5534    5.0550 O.3     1  UNL1       -0.4415
     21 C           6.1590   32.8456    5.4359 C.2     1  UNL1        0.3455
     22 O           6.1909   33.1528    6.6286 O.2     1  UNL1       -0.2471
     23 C           6.1034   33.9354    4.3464 C.3     1  UNL1        0.1961
     24 O           6.9223   35.0303    4.8008 O.3     1  UNL1       -0.3728
     25 H           6.7930   35.0841    5.7692 H       1  UNL1        0.2114
     26 C          10.2501   33.2184   -3.7010 C.3     1  UNL1        0.0050
     27 C           8.7532   33.4947   -3.7624 C.3     1  UNL1        0.0262
     28 C           4.6567   34.4697    4.2304 C.3     1  UNL1        0.0422
     29 C           3.6686   33.5219    3.5608 C.3     1  UNL1        0.0034
     30 O           7.9503   38.4704   -5.4469 O.3     1  UNL1       -0.4101
     31 C           6.9719   38.3837   -6.4334 C.2     1  UNL1        0.4094
     32 O           5.7682   38.6023   -6.2599 O.2     1  UNL1       -0.2258
     33 N           7.4900   37.9896   -7.6575 N.am    1  UNL1       -0.2456
     34 C           6.5112   37.4567   -8.5945 C.3     1  UNL1        0.0981
     35 C           7.0715   37.1637   -9.9731 C.3     1  UNL1        0.0376
     36 C           8.3699   36.3362   -9.9012 C.3     1  UNL1        0.0609
     37 C           9.3639   37.2154   -9.1179 C.3     1  UNL1        0.0376
     38 C           8.8698   37.5146   -7.7135 C.3     1  UNL1        0.0981
     39 N           8.2034   34.9563   -9.3413 N.3     1  UNL1       -0.2738
     40 C           9.4851   34.2199   -9.3901 C.3     1  UNL1        0.0720
     41 C           9.3814   32.7419   -9.0112 C.3     1  UNL1        0.0174
     42 C           8.3580   32.0334   -9.8786 C.3     1  UNL1        0.0029
     43 C           7.0214   32.7343   -9.7205 C.3     1  UNL1        0.0174
     44 C           7.1304   34.2260  -10.0516 C.3     1  UNL1        0.0720
@<TRIPOS>BOND
     1    26    27    1
     2    27     1    1
     3     1     2   ar
     4     1    10   ar
     5     2     3   ar
     6     2    18    1
     7     3     4   ar
     8     3    11    1
     9     4     5   ar
    10     5     6   ar
    11     5    10   ar
    12     6     7   ar
    13     7     8   ar
    14     8    30    1
    15     8     9   ar
    16    30    31    1
    17    31    32    2
    18    31    33   am
    19    33    34    1
    20    33    38    1
    21    34    35    1
    22    35    36    1
    23    36    39    1
    24    36    37    1
    25    39    40    1
    26    39    44    1
    27    40    41    1
    28    41    42    1
    29    42    43    1
    30    43    44    1
    31    37    38    1
    32     9    10   ar
    33    11    12   ar
    34    11    17   ar
    35    12    13   ar
    36    13    14   ar
    37    13    23    1
    38    14    15   ar
    39    14    19    1
    40    15    16    2
    41    15    17   ar
    42    17    18    1
    43    19    20    1
    44    20    21    1
    45    21    22    2
    46    21    23    1
    47    23    28    1
    48    23    24    1
    49    24    25    1
    50    28    29    1
#	Name:			CHEMBL482601
#	Creating user name:	trannguyen
#	Creation time:		Tue Feb  8 18:26:14 2022


#	Modifying user name:	trannguyen
#	Modification time:	Tue Feb  8 18:26:14 2022

@<TRIPOS>MOLECULE
CHEMBL482601
 21 20 0 0 0
SMALL
GASTEIGER

@<TRIPOS>ATOM
      1 C           1.9951   31.8959    3.8149 C.2     1  UNL1        0.0447
      2 C           3.0317   32.7092    3.4531 C.2     1  UNL1       -0.0173
      3 C           1.9571   31.6470    6.3987 C.1     1  UNL1       -0.0864
      4 C           1.9745   31.7611    5.2142 C.1     1  UNL1       -0.0641
      5 C           1.9360   31.5086    7.8359 C.3     1  UNL1        0.0764
      6 C           2.6384   32.7257    8.4739 C.3     1  UNL1        0.0140
      7 C           3.9659   32.4959    9.2702 C.3     1  UNL1        0.0010
      8 C           5.0350   31.4645    8.8350 C.3     1  UNL1        0.0000
      9 C           5.7707   30.8086    9.9510 C.3     1  UNL1        0.0000
     10 C           5.5189   29.3812   10.3883 C.3     1  UNL1        0.0000
     11 C           2.7676   29.0383   10.4743 C.3     1  UNL1        0.0000
     12 C           4.1480   28.8078    9.8707 C.3     1  UNL1        0.0000
     13 C           3.7931   33.7119    4.2987 C.3     1  UNL1        0.0267
     14 C           4.9572   33.1128    5.1012 C.3     1  UNL1        0.0047
     15 C           5.7926   32.0566    4.3701 C.3     1  UNL1        0.0009
     16 C           7.0261   32.5302    3.5733 C.3     1  UNL1        0.0117
     17 C           7.1363   32.5746    2.0545 C.3     1  UNL1        0.1094
     18 C           7.9792   31.3960    1.6232 C.2     1  UNL1        0.3138
     19 O           9.0785   31.4119    1.2737 O.2     1  UNL1       -0.2503
     20 O           7.2610   30.2486    1.6365 O.3     1  UNL1       -0.4802
     21 H           7.9361   29.5656    1.8236 H       1  UNL1        0.2951
@<TRIPOS>BOND
     1    11    12    1
     2    12    10    1
     3    10     9    1
     4     9     8    1
     5     8     7    1
     6     7     6    1
     7     6     5    1
     8     5     3    1
     9     3     4    3
    10     4     1    1
    11     1     2    2
    12     2    13    1
    13    13    14    1
    14    14    15    1
    15    15    16    1
    16    16    17    1
    17    17    18    1
    18    18    19    2
    19    18    20    1
    20    20    21    1
#	Name:			CHEMBL482803
#	Creating user name:	trannguyen
#	Creation time:		Tue Feb  8 18:26:14 2022


#	Modifying user name:	trannguyen
#	Modification time:	Tue Feb  8 18:26:14 2022

@<TRIPOS>MOLECULE
CHEMBL482803
 21 20 0 0 0
SMALL
GASTEIGER

@<TRIPOS>ATOM
      1 C           6.8657   32.3245    6.8564 C.2     1  UNL1        0.0447
      2 C           6.3688   31.6683    7.9183 C.2     1  UNL1       -0.0173
      3 C           5.6100   33.0542    4.7043 C.1     1  UNL1       -0.0864
      4 C           6.1856   32.7197    5.6909 C.1     1  UNL1       -0.0641
      5 C           4.9116   33.4600    3.5074 C.3     1  UNL1        0.0764
      6 C           3.4091   33.5810    3.7803 C.3     1  UNL1        0.0140
      7 C           2.6191   32.2991    3.4701 C.3     1  UNL1        0.0010
      8 C           2.8389   31.2059    4.5211 C.3     1  UNL1        0.0000
      9 C           1.9641   31.4124    5.7613 C.3     1  UNL1        0.0000
     10 C           2.8122   31.4798    7.0359 C.3     1  UNL1        0.0000
     11 C           3.2765   32.9303    9.1039 C.3     1  UNL1        0.0000
     12 C           2.9771   32.8898    7.6127 C.3     1  UNL1        0.0000
     13 C           7.2480   31.1222    9.0435 C.3     1  UNL1        0.0267
     14 C           6.5694   31.0952   10.4340 C.3     1  UNL1        0.0047
     15 C           5.8868   29.7485   10.7823 C.3     1  UNL1        0.0009
     16 C           4.7863   29.2816    9.8009 C.3     1  UNL1        0.0117
     17 C           3.3495   29.3715   10.3160 C.3     1  UNL1        0.1094
     18 C           2.5897   28.0763   10.4432 C.2     1  UNL1        0.3138
     19 O           2.9929   27.0627   10.9534 O.2     1  UNL1       -0.2503
     20 O           1.3902   28.0850    9.8074 O.3     1  UNL1       -0.4802
     21 H           1.1329   27.1390    9.7940 H       1  UNL1        0.2951
@<TRIPOS>BOND
     1    11    12    1
     2    12    10    1
     3    10     9    1
     4     9     8    1
     5     8     7    1
     6     7     6    1
     7     6     5    1
     8     5     3    1
     9     3     4    3
    10     4     1    1
    11     1     2    2
    12     2    13    1
    13    13    14    1
    14    14    15    1
    15    15    16    1
    16    16    17    1
    17    17    18    1
    18    18    19    2
    19    18    20    1
    20    20    21    1
#	Name:			CHEMBL482804
#	Creating user name:	trannguyen
#	Creation time:		Tue Feb  8 18:26:14 2022


#	Modifying user name:	trannguyen
#	Modification time:	Tue Feb  8 18:26:14 2022

@<TRIPOS>MOLECULE
CHEMBL482804
 21 20 0 0 0
SMALL
GASTEIGER

@<TRIPOS>ATOM
      1 C           7.7611   32.1306    7.6775 C.3     1  UNL1        0.0760
      2 C           6.8334   31.7891    5.2359 C.1     1  UNL1       -0.0911
      3 C           7.2525   31.9434    6.3391 C.1     1  UNL1       -0.0911
      4 C           6.3249   31.6020    3.8975 C.3     1  UNL1        0.0760
      5 C           5.7349   32.9050    3.3124 C.3     1  UNL1        0.0139
      6 C           4.5351   33.5522    4.0351 C.3     1  UNL1        0.0010
      7 C           3.1259   33.2233    3.4696 C.3     1  UNL1        0.0000
      8 C           1.9161   33.1658    4.4314 C.3     1  UNL1        0.0000
      9 C           1.7578   31.8679    5.2298 C.3     1  UNL1        0.0000
     10 C           1.5780   30.9042    7.5571 C.3     1  UNL1        0.0000
     11 C           2.2506   31.9554    6.6751 C.3     1  UNL1        0.0000
     12 C           7.4158   30.9164    8.5500 C.3     1  UNL1        0.0139
     13 C           6.4058   31.2579    9.6557 C.3     1  UNL1        0.0010
     14 C           4.9660   31.1609    9.1610 C.3     1  UNL1        0.0000
     15 C           4.1056   30.1672    9.9431 C.3     1  UNL1        0.0006
     16 C           4.7503   28.7902   10.1768 C.3     1  UNL1        0.0116
     17 C           3.7883   27.6121   10.0483 C.3     1  UNL1        0.1094
     18 C           2.4354   27.7802   10.6854 C.2     1  UNL1        0.3138
     19 O           2.3021   27.8184   11.9164 O.2     1  UNL1       -0.2503
     20 O           1.3662   27.9151    9.8946 O.3     1  UNL1       -0.4802
     21 H           1.5386   27.9370    8.9327 H       1  UNL1        0.2951
@<TRIPOS>BOND
     1    10    11    1
     2    11     9    1
     3     9     8    1
     4     8     7    1
     5     7     6    1
     6     6     5    1
     7     5     4    1
     8     4     2    1
     9     2     3    3
    10     3     1    1
    11     1    12    1
    12    12    13    1
    13    13    14    1
    14    14    15    1
    15    15    16    1
    16    16    17    1
    17    17    18    1
    18    18    19    2
    19    18    20    1
    20    20    21    1
#	Name:			CHEMBL483819
#	Creating user name:	trannguyen
#	Creation time:		Tue Feb  8 18:26:14 2022


#	Modifying user name:	trannguyen
#	Modification time:	Tue Feb  8 18:26:14 2022

@<TRIPOS>MOLECULE
CHEMBL483819
 22 22 0 0 0
SMALL
GASTEIGER

@<TRIPOS>ATOM
      1 C           5.9218   30.4391    9.8447 C.1     1  UNL1       -0.0117
      2 C           6.6658   31.3693    9.7048 C.1     1  UNL1       -0.0464
      3 C           7.5565   32.4681    9.5287 C.3     1  UNL1        0.2060
      4 O           8.2198   32.8677   10.7419 O.3     1  UNL1       -0.3398
      5 C           9.0348   32.2402    9.7409 C.3     1  UNL1        0.1560
      6 C          10.0616   33.1290    9.1224 C.3     1  UNL1        0.0338
      7 C          11.4425   32.9660    9.7664 C.3     1  UNL1        0.0143
      8 C          12.3971   32.0460    9.0104 C.3     1  UNL1        0.1095
      9 C          12.7519   30.8223    9.8152 C.2     1  UNL1        0.3138
     10 O          13.2099   29.7988    9.3301 O.2     1  UNL1       -0.2503
     11 O          12.5712   30.9781   11.1439 O.3     1  UNL1       -0.4802
     12 H          12.2126   31.8492   11.3986 H       1  UNL1        0.2951
     13 C           4.1549   28.3899   10.0006 C.1     1  UNL1       -0.0779
     14 C           4.9637   29.2622    9.9630 C.1     1  UNL1       -0.0141
     15 C           3.1736   27.3314   10.0463 C.3     1  UNL1        0.0770
     16 C           2.1455   27.5463   11.1739 C.3     1  UNL1        0.0140
     17 C           1.4229   28.8997   11.0758 C.3     1  UNL1        0.0010
     18 C           0.4991   29.0177    9.8576 C.3     1  UNL1        0.0000
     19 C           0.8173   30.2962    9.0662 C.3     1  UNL1        0.0000
     20 C           1.6987   31.2644    9.8600 C.3     1  UNL1        0.0000
     21 C           2.8284   31.3664    7.6027 C.3     1  UNL1        0.0000
     22 C           2.6428   32.0544    8.9480 C.3     1  UNL1        0.0000
@<TRIPOS>BOND
     1    21    22    1
     2    22    20    1
     3    20    19    1
     4    19    18    1
     5    18    17    1
     6    17    16    1
     7    16    15    1
     8    15    13    1
     9    13    14    3
    10    14     1    1
    11     1     2    3
    12     2     3    1
    13     3     4    1
    14     3     5    1
    15     4     5    1
    16     5     6    1
    17     6     7    1
    18     7     8    1
    19     8     9    1
    20     9    10    2
    21     9    11    1
    22    11    12    1
#	Name:			CHEMBL48449
#	Creating user name:	trannguyen
#	Creation time:		Tue Feb  8 18:26:14 2022


#	Modifying user name:	trannguyen
#	Modification time:	Tue Feb  8 18:26:14 2022

@<TRIPOS>MOLECULE
CHEMBL48449
 14 16 0 0 0
SMALL
GASTEIGER

@<TRIPOS>ATOM
      1 C           4.3455   32.2055    7.0969 C.3     1  UNL1        0.0142
      2 C           3.6758   32.5778    5.7744 C.3     1  UNL1        0.1266
      3 C           3.5746   34.0668    5.6589 C.2     1  UNL1        0.3254
      4 O           3.0364   34.7998    6.4732 O.2     1  UNL1       -0.2495
      5 O           4.1479   34.5019    4.5135 O.3     1  UNL1       -0.3923
      6 C           4.6230   33.4690    3.7812 C.2     1  UNL1        0.3254
      7 O           5.1361   33.5920    2.6798 O.2     1  UNL1       -0.2495
      8 C           4.4178   32.1693    4.4954 C.3     1  UNL1        0.1266
      9 C           5.7647   31.4739    4.6845 C.3     1  UNL1        0.0142
     10 C           3.3927   31.2560    3.8039 C.3     1  UNL1        0.1257
     11 C           2.1737   31.9840    3.2335 C.3     1  UNL1        0.0326
     12 C           1.4348   32.4195    4.4981 C.3     1  UNL1        0.0326
     13 C           2.3279   31.8599    5.6079 C.3     1  UNL1        0.1257
     14 O           2.7776   30.6335    4.9665 O.3     1  UNL1       -0.3576
@<TRIPOS>BOND
     1     2     3    1
     2     2     8    1
     3     2    13    1
     4     2     1    1
     5     3     5    1
     6     3     4    2
     7     5     6    1
     8     6     8    1
     9     6     7    2
    10     8    10    1
    11     8     9    1
    12    10    11    1
    13    10    14    1
    14    11    12    1
    15    12    13    1
    16    13    14    1
#	Name:			CHEMBL485259
#	Creating user name:	trannguyen
#	Creation time:		Tue Feb  8 18:26:14 2022


#	Modifying user name:	trannguyen
#	Modification time:	Tue Feb  8 18:26:14 2022

@<TRIPOS>MOLECULE
CHEMBL485259
 11 12 0 0 0
SMALL
GASTEIGER

@<TRIPOS>ATOM
      1 C           3.1846   31.9164    7.4336 C.3     1  UNL1        0.0296
      2 C           3.3137   32.2354    5.9478 C.3     1  UNL1        0.0926
      3 C           2.7398   33.6295    5.6297 C.3     1  UNL1        0.0273
      4 C           2.8800   33.9167    4.1305 C.3     1  UNL1        0.0047
      5 C           3.6553   32.7614    3.4684 C.3     1  UNL1        0.0251
      6 C           2.7609   31.5142    3.6044 C.3     1  UNL1        0.0047
      7 C           2.6170   31.1621    5.0894 C.3     1  UNL1        0.0273
      8 C           4.9901   32.5275    4.2349 C.3     1  UNL1        0.0926
      9 C           5.7830   31.3399    3.6679 C.3     1  UNL1        0.0296
     10 C           5.9027   33.7627    4.1989 C.3     1  UNL1        0.0296
     11 O           4.7190   32.2366    5.6229 O.3     1  UNL1       -0.3633
@<TRIPOS>BOND
     1     1     2    1
     2     2     3    1
     3     2     7    1
     4     2    11    1
     5     3     4    1
     6     4     5    1
     7     5     6    1
     8     5     8    1
     9     6     7    1
    10     8     9    1
    11     8    10    1
    12     8    11    1
#	Name:			CHEMBL485549
#	Creating user name:	trannguyen
#	Creation time:		Tue Feb  8 18:26:14 2022


#	Modifying user name:	trannguyen
#	Modification time:	Tue Feb  8 18:26:14 2022

@<TRIPOS>MOLECULE
CHEMBL485549
 28 29 0 0 0
SMALL
GASTEIGER

@<TRIPOS>ATOM
      1 O           6.4128   30.6231   10.9149 O.2     1  UNL1       -0.2683
      2 C           5.8827   30.6632    9.8014 C.2     1  UNL1        0.2675
      3 N           6.5446   31.0245    8.6443 N.am    1  UNL1       -0.2021
      4 H           6.0374   31.0542    7.7615 H       1  UNL1        0.1776
      5 C           4.4275   30.3117    9.6899 C.ar    1  UNL1        0.0917
      6 C           4.0123   29.1669   10.4024 C.ar    1  UNL1        0.0276
      7 C           2.6759   28.7539   10.3780 C.ar    1  UNL1        0.0937
      8 C           1.7262   29.4740    9.6489 C.ar    1  UNL1        0.0429
      9 C           2.1303   30.6157    8.9363 C.ar    1  UNL1        0.1270
     10 C           3.4791   31.0408    8.9433 C.ar    1  UNL1        0.1564
     11 O           3.9144   32.1465    8.2481 O.3     1  UNL1       -0.5038
     12 H           3.1668   32.5611    7.7574 H       1  UNL1        0.2923
     13 N           2.2652   27.5583   11.1296 N.pl3   1  UNL1       -0.1853
     14 O           2.3775   26.4596   10.5730 O.2     1  UNL1       -0.1725
     15 O           1.8311   27.7295   12.2764 O.co2   1  UNL1       -0.7770
     16 N           1.1030   31.3600    8.1939 N.pl3   1  UNL1       -0.1823
     17 O           1.2978   31.5851    6.9941 O.2     1  UNL1       -0.1724
     18 O           0.0963   31.7167    8.8257 O.co2   1  UNL1       -0.7769
     19 N           7.8673   31.3606    8.7006 N.2     1  UNL1       -0.1741
     20 C           8.6661   30.6590    7.9644 C.2     1  UNL1        0.1550
     21 C          10.0696   30.9597    7.9307 C.ar    1  UNL1        0.1680
     22 C          10.8368   31.7356    7.0779 C.ar    1  UNL1        0.0441
     23 C          12.1816   31.6277    7.5176 C.ar    1  UNL1        0.0619
     24 C          12.1423   30.7745    8.5940 C.ar    1  UNL1        0.2384
     25 O          10.8710   30.3813    8.8784 O.2     1  UNL1       -0.4339
     26 N          13.1727   30.2542    9.4361 N.pl3   1  UNL1       -0.1507
     27 O          14.1612   29.7771    8.8628 O.2     1  UNL1       -0.1698
     28 O          13.0023   30.3147   10.6604 O.co2   1  UNL1       -0.7748
@<TRIPOS>UNITY_ATOM_ATTR
15 1
charge -1
18 1
charge -1
28 1
charge -1
@<TRIPOS>BOND
     1     1     2    2
     2     2     3   am
     3     2     5    1
     4     3    19    1
     5     3     4    1
     6    19    20    2
     7    20    21    1
     8    21    22   ar
     9    21    25   ar
    10    22    23   ar
    11    23    24   ar
    12    24    26    1
    13    24    25   ar
    14    26    27    2
    15    26    28    1
    16     5     6   ar
    17     5    10   ar
    18     6     7   ar
    19     7    13    1
    20     7     8   ar
    21    13    14    2
    22    13    15    1
    23     8     9   ar
    24     9    16    1
    25     9    10   ar
    26    16    17    2
    27    16    18    1
    28    10    11    1
    29    11    12    1
#	Name:			CHEMBL485858
#	Creating user name:	trannguyen
#	Creation time:		Tue Feb  8 18:26:14 2022


#	Modifying user name:	trannguyen
#	Modification time:	Tue Feb  8 18:26:14 2022

@<TRIPOS>MOLECULE
CHEMBL485858
 21 20 0 0 0
SMALL
GASTEIGER

@<TRIPOS>ATOM
      1 C           4.8093   29.5242   10.0621 C.1     1  UNL1       -0.0141
      2 C           3.8527   28.8212   10.1456 C.1     1  UNL1       -0.0779
      3 C           6.8656   31.0353    9.8821 C.1     1  UNL1       -0.0779
      4 C           5.9089   30.3323    9.9659 C.1     1  UNL1       -0.0141
      5 C           8.0263   31.8883    9.7806 C.3     1  UNL1        0.0770
      6 C           8.1952   32.4456    8.3683 C.3     1  UNL1        0.0140
      7 C           8.2595   31.3560    7.2853 C.3     1  UNL1        0.0010
      8 C           7.3572   31.6549    6.0834 C.3     1  UNL1        0.0000
      9 C           6.4282   32.8450    6.3350 C.3     1  UNL1        0.0000
     10 C           4.9601   32.4919    6.1031 C.3     1  UNL1        0.0000
     11 C           4.3660   33.3440    8.4354 C.3     1  UNL1        0.0000
     12 C           4.2079   32.2303    7.4113 C.3     1  UNL1        0.0000
     13 C           2.6919   27.9682   10.2471 C.3     1  UNL1        0.0770
     14 C           1.4846   28.6840   10.8365 C.3     1  UNL1        0.0140
     15 C           0.5437   29.2339    9.7644 C.3     1  UNL1        0.0016
     16 C           1.1684   30.1483    8.6975 C.3     1  UNL1        0.0117
     17 C           0.8037   31.6359    8.7577 C.3     1  UNL1        0.1094
     18 C           1.0485   32.3740   10.0520 C.2     1  UNL1        0.3138
     19 O           2.0558   32.2533   10.7384 O.2     1  UNL1       -0.2503
     20 O           0.0748   33.2505   10.3912 O.3     1  UNL1       -0.4802
     21 H          -0.6307   33.3505    9.7303 H       1  UNL1        0.2951
@<TRIPOS>BOND
     1    11    12    1
     2    12    10    1
     3    10     9    1
     4     9     8    1
     5     8     7    1
     6     7     6    1
     7     6     5    1
     8     5     3    1
     9     3     4    3
    10     4     1    1
    11     1     2    3
    12     2    13    1
    13    13    14    1
    14    14    15    1
    15    15    16    1
    16    16    17    1
    17    17    18    1
    18    18    19    2
    19    18    20    1
    20    20    21    1
#	Name:			CHEMBL486985
#	Creating user name:	trannguyen
#	Creation time:		Tue Feb  8 18:26:14 2022


#	Modifying user name:	trannguyen
#	Modification time:	Tue Feb  8 18:26:14 2022

@<TRIPOS>MOLECULE
CHEMBL486985
 24 26 0 0 0
SMALL
GASTEIGER

@<TRIPOS>ATOM
      1 C           1.9479   28.4071    9.8352 C.3     1  UNL1        0.0260
      2 C           3.0997   29.3772    9.7412 C.2     1  UNL1       -0.0488
      3 C           4.2825   29.0611   10.3043 C.2     1  UNL1       -0.0346
      4 C           5.4957   29.9393   10.3006 C.3     1  UNL1        0.0254
      5 C           5.2692   31.3310    9.7063 C.3     1  UNL1        0.0049
      6 C           4.2713   31.2785    8.5295 C.3     1  UNL1        0.0038
      7 C           4.2482   32.5688    7.6117 C.3     1  UNL1        0.0006
      8 C           3.9119   33.8542    8.4118 C.3     1  UNL1        0.0000
      9 C           3.2071   32.3401    6.4535 C.3     1  UNL1        0.0000
     10 C           2.9962   33.5560    5.5393 C.3     1  UNL1        0.0000
     11 C           1.8424   31.8485    6.9595 C.3     1  UNL1        0.0003
     12 C           1.9642   30.5743    7.7916 C.3     1  UNL1        0.0037
     13 C           2.8761   30.7336    9.0300 C.3     1  UNL1        0.0149
     14 C           2.1705   31.6286   10.0753 C.3     1  UNL1        0.0040
     15 C           5.6746   32.8456    6.9976 C.3     1  UNL1        0.0046
     16 C           6.2938   31.7428    6.1259 C.3     1  UNL1        0.0284
     17 C           6.4442   32.1830    4.7047 C.2     1  UNL1        0.0312
     18 C           6.8131   33.3896    4.2802 C.2     1  UNL1        0.0794
     19 C           6.8236   33.3269    2.8213 C.2     1  UNL1        0.3430
     20 O           7.1163   34.2550    2.0925 O.2     1  UNL1       -0.2448
     21 O           6.4802   32.0763    2.4144 O.3     1  UNL1       -0.4177
     22 C           6.2310   31.2754    3.5572 C.3     1  UNL1        0.3081
     23 O           4.8982   30.8196    3.5474 O.3     1  UNL1       -0.3468
     24 H           4.8458   30.2014    2.8003 H       1  UNL1        0.2144
@<TRIPOS>BOND
     1     1     2    1
     2     2     3    2
     3     2    13    1
     4     3     4    1
     5     4     5    1
     6     5     6    1
     7     6     7    1
     8     6    13    1
     9     7     9    1
    10     7    15    1
    11     7     8    1
    12    15    16    1
    13    16    17    1
    14    17    18    2
    15    17    22    1
    16    18    19    1
    17    19    20    2
    18    19    21    1
    19    21    22    1
    20    22    23    1
    21    23    24    1
    22     9    11    1
    23     9    10    1
    24    11    12    1
    25    12    13    1
    26    13    14    1
#	Name:			CHEMBL487894
#	Creating user name:	trannguyen
#	Creation time:		Tue Feb  8 18:26:14 2022


#	Modifying user name:	trannguyen
#	Modification time:	Tue Feb  8 18:26:14 2022

@<TRIPOS>MOLECULE
CHEMBL487894
 21 22 0 0 0
SMALL
GASTEIGER

@<TRIPOS>ATOM
      1 C           1.8543   31.0688    5.7907 C.3     1  UNL1        0.0531
      2 C           3.1102   31.8735    5.6581 C.ar    1  UNL1        0.0726
      3 C           3.9295   32.3221    6.6364 C.ar    1  UNL1        0.1209
      4 C           5.0926   32.9510    5.8501 C.ar    1  UNL1        0.2934
      5 O           6.0891   33.4666    6.3496 O.2     1  UNL1       -0.2638
      6 N           4.8119   32.7755    4.4839 N.ar    1  UNL1       -0.2134
      7 N           3.5486   32.1670    4.3687 N.ar    1  UNL1       -0.2646
      8 C           2.6518   32.8524    3.4286 C.3     1  UNL1        0.1518
      9 C           5.8232   32.4031    3.5528 C.ar    1  UNL1        0.0841
     10 C           6.4476   33.3599    2.7446 C.ar    1  UNL1        0.0192
     11 C           7.4411   32.9793    1.8324 C.ar    1  UNL1        0.0015
     12 C           7.8353   31.6449    1.7358 C.ar    1  UNL1        0.0001
     13 C           7.2273   30.6853    2.5386 C.ar    1  UNL1        0.0015
     14 C           6.2195   31.0610    3.4292 C.ar    1  UNL1        0.0192
     15 N           3.8594   32.2643    8.0375 N.pl3   1  UNL1       -0.2831
     16 C           5.0069   31.8083    8.8282 C.3     1  UNL1        0.1139
     17 C           2.9462   33.1690    8.7983 C.3     1  UNL1        0.2198
     18 S           1.4915   32.5460    9.7446 S.3     1  UNL1       -0.0873
     19 O           1.0046   33.6923   10.5285 O.2     1  UNL1       -0.3698
     20 O           0.5038   32.0534    8.8007 O.2     1  UNL1       -0.3698
     21 O           1.9528   31.5428   10.7081 O.3     1  UNL1       -0.2894
@<TRIPOS>BOND
     1     1     2    1
     2     2     3   ar
     3     2     7   ar
     4     3    15    1
     5     3     4   ar
     6    15    16    1
     7    15    17    1
     8    17    18    1
     9    18    19    2
    10    18    20    2
    11    18    21    1
    12     4     5    2
    13     4     6   ar
    14     6     9    1
    15     6     7   ar
    16     9    10   ar
    17     9    14   ar
    18    10    11   ar
    19    11    12   ar
    20    12    13   ar
    21    13    14   ar
    22     7     8    1
#	Name:			CHEMBL488025
#	Creating user name:	trannguyen
#	Creation time:		Tue Feb  8 18:26:14 2022


#	Modifying user name:	trannguyen
#	Modification time:	Tue Feb  8 18:26:14 2022

@<TRIPOS>MOLECULE
CHEMBL488025
 27 29 0 0 0
SMALL
GASTEIGER

@<TRIPOS>ATOM
      1 C           7.6478   33.7234    7.1630 C.3     1  UNL1        0.0307
      2 C           6.4568   33.1726    6.4489 C.2     1  UNL1       -0.0253
      3 C           6.1485   33.2864    5.1366 C.2     1  UNL1       -0.0150
      4 C           4.8530   32.6177    4.9177 C.ar    1  UNL1       -0.0015
      5 C           4.1084   32.5061    3.7511 C.ar    1  UNL1        0.0293
      6 C           2.8555   31.9063    3.8298 C.ar    1  UNL1        0.1401
      7 F           2.1130   31.7943    2.7208 F       1  UNL1       -0.2042
      8 C           2.3468   31.4319    5.0409 C.ar    1  UNL1        0.0296
      9 C           3.1099   31.5230    6.2082 C.ar    1  UNL1        0.0023
     10 C           4.3710   32.0980    6.1342 C.ar    1  UNL1       -0.0005
     11 C           5.4286   32.3610    7.1240 C.2     1  UNL1       -0.0042
     12 C           5.5524   31.8869    8.3766 C.2     1  UNL1       -0.0003
     13 C           4.6663   30.9329    9.0443 C.ar    1  UNL1        0.0001
     14 C           3.3492   31.2814    9.3588 C.ar    1  UNL1        0.0013
     15 C           2.5147   30.3612    9.9962 C.ar    1  UNL1        0.0183
     16 C           3.0104   29.0985   10.3352 C.ar    1  UNL1        0.1057
     17 C           4.3232   28.7379   10.0227 C.ar    1  UNL1        0.0183
     18 C           5.1498   29.6595    9.3775 C.ar    1  UNL1        0.0013
     19 S           1.9542   27.9312   11.1603 S.O2    1  UNL1        0.0104
     20 C           0.3189   28.3881   10.6474 C.3     1  UNL1        0.1816
     21 O           2.2337   26.6196   10.6124 O.2     1  UNL1       -0.1686
     22 O           2.0755   28.1902   12.5838 O.2     1  UNL1       -0.1686
     23 C           6.9092   33.9512    4.0354 C.3     1  UNL1        0.1354
     24 C           7.8643   33.0518    3.2665 C.2     1  UNL1        0.3183
     25 O           7.6168   31.8756    3.0338 O.2     1  UNL1       -0.2499
     26 O           9.0392   33.6121    2.9056 O.3     1  UNL1       -0.4799
     27 H           9.1218   34.5592    3.1288 H       1  UNL1        0.2951
@<TRIPOS>BOND
     1     1     2    1
     2     2     3    2
     3     2    11    1
     4     3    23    1
     5     3     4    1
     6    23    24    1
     7    24    25    2
     8    24    26    1
     9    26    27    1
    10     4     5   ar
    11     4    10   ar
    12     5     6   ar
    13     6     7    1
    14     6     8   ar
    15     8     9   ar
    16     9    10   ar
    17    10    11    1
    18    11    12    2
    19    12    13    1
    20    13    14   ar
    21    13    18   ar
    22    14    15   ar
    23    15    16   ar
    24    16    19    1
    25    16    17   ar
    26    19    20    1
    27    19    21    2
    28    19    22    2
    29    17    18   ar
#	Name:			CHEMBL488
#	Creating user name:	trannguyen
#	Creation time:		Tue Feb  8 18:26:14 2022


#	Modifying user name:	trannguyen
#	Modification time:	Tue Feb  8 18:26:14 2022

@<TRIPOS>MOLECULE
CHEMBL488
 20 21 0 0 0
SMALL
GASTEIGER

@<TRIPOS>ATOM
      1 C           2.1199   31.0945    9.0638 C.3     1  UNL1        0.0884
      2 C           3.1577   29.9612    9.2932 C.3     1  UNL1        0.0223
      3 C           2.9729   29.2462   10.6245 C.3     1  UNL1        0.0863
      4 C           1.5617   28.7496   10.7944 C.2     1  UNL1        0.2281
      5 O           1.2705   27.8653   11.5919 O.2     1  UNL1       -0.2747
      6 N           0.5940   29.3880   10.0627 N.am    1  UNL1       -0.2551
      7 C           0.7106   30.4834    9.2375 C.2     1  UNL1        0.2310
      8 O          -0.3129   30.9655    8.7522 O.2     1  UNL1       -0.2744
      9 H          -0.3488   29.0492   10.1993 H       1  UNL1        0.1575
     10 C           2.3903   31.6319    7.6387 C.ar    1  UNL1       -0.0145
     11 C           1.9163   30.9681    6.4946 C.ar    1  UNL1       -0.0026
     12 C           2.1684   31.4658    5.2075 C.ar    1  UNL1        0.0138
     13 C           2.9490   32.6042    5.0165 C.ar    1  UNL1        0.0415
     14 N           3.0771   33.1771    3.7471 N.pl3   1  UNL1       -0.3570
     15 C           3.4023   33.2859    6.1418 C.ar    1  UNL1        0.0138
     16 C           3.1615   32.7894    7.4284 C.ar    1  UNL1       -0.0026
     17 H           3.0072   32.5102    2.9855 H       1  UNL1        0.1424
     18 H           3.8810   33.7893    3.6525 H       1  UNL1        0.1424
     19 C           1.1208   33.2056   10.2329 C.3     1  UNL1        0.0008
     20 C           2.2618   32.1887   10.1720 C.3     1  UNL1        0.0127
@<TRIPOS>BOND
     1    19    20    1
     2    20     1    1
     3     1    10    1
     4     1     2    1
     5     1     7    1
     6    10    11   ar
     7    10    16   ar
     8    11    12   ar
     9    12    13   ar
    10    13    14    1
    11    13    15   ar
    12    14    17    1
    13    14    18    1
    14    15    16   ar
    15     2     3    1
    16     3     4    1
    17     4     5    2
    18     4     6   am
    19     6     7   am
    20     6     9    1
    21     7     8    2
#	Name:			CHEMBL49080
#	Creating user name:	trannguyen
#	Creation time:		Tue Feb  8 18:26:14 2022


#	Modifying user name:	trannguyen
#	Modification time:	Tue Feb  8 18:26:14 2022

@<TRIPOS>MOLECULE
CHEMBL49080
 21 21 0 0 0
SMALL
GASTEIGER

@<TRIPOS>ATOM
      1 C           2.6724   31.3819    9.4894 C.ar    1  UNL1        0.0074
      2 C           3.7524   30.5071    9.6584 C.ar    1  UNL1        0.0108
      3 C           3.5472   29.1448    9.9122 C.ar    1  UNL1        0.0711
      4 CL          4.9367   28.1245   10.0756 Cl      1  UNL1       -0.0810
      5 C           2.2500   28.6139   10.0522 C.ar    1  UNL1        0.0629
      6 N           2.0452   27.2177   10.1400 N.pl3   1  UNL1       -0.3557
      7 C           1.1736   29.4959    9.8675 C.ar    1  UNL1        0.0711
      8 CL         -0.4597   28.9237    9.9717 Cl      1  UNL1       -0.0810
      9 C           1.3733   30.8607    9.6134 C.ar    1  UNL1        0.0108
     10 H           2.8242   26.7187   10.5575 H       1  UNL1        0.1424
     11 H           1.1375   26.9659   10.5291 H       1  UNL1        0.1424
     12 C           2.8748   32.8575    9.1848 C.3     1  UNL1        0.1484
     13 O           1.6005   33.5022    9.1208 O.3     1  UNL1       -0.3786
     14 H           1.7858   34.4551    9.1941 H       1  UNL1        0.2108
     15 C           3.6316   33.0569    7.8489 C.3     1  UNL1        0.1027
     16 N           2.7698   33.5438    6.7453 N.3     1  UNL1       -0.2973
     17 H           1.8135   33.6104    7.0985 H       1  UNL1        0.1233
     18 C           1.9754   33.3769    4.4311 C.3     1  UNL1        0.0158
     19 C           2.7508   32.6551    5.5543 C.3     1  UNL1        0.0421
     20 C           2.0168   31.3362    5.8551 C.3     1  UNL1        0.0158
     21 C           4.1686   32.3613    5.0340 C.3     1  UNL1        0.0158
@<TRIPOS>BOND
     1    18    19    1
     2    19    20    1
     3    19    21    1
     4    19    16    1
     5    16    15    1
     6    16    17    1
     7    15    12    1
     8    12    13    1
     9    12     1    1
    10    13    14    1
    11     1     2   ar
    12     1     9   ar
    13     2     3   ar
    14     3     4    1
    15     3     5   ar
    16     5     6    1
    17     5     7   ar
    18     6    10    1
    19     6    11    1
    20     7     8    1
    21     7     9   ar
#	Name:			CHEMBL490
#	Creating user name:	trannguyen
#	Creation time:		Tue Feb  8 18:26:14 2022


#	Modifying user name:	trannguyen
#	Modification time:	Tue Feb  8 18:26:14 2022

@<TRIPOS>MOLECULE
CHEMBL490
 25 28 0 0 0
SMALL
GASTEIGER

@<TRIPOS>ATOM
      1 C           2.1671   31.5661    8.1216 C.3     1  UNL1        0.0286
      2 C           1.8928   31.0719    6.6856 C.3     1  UNL1        0.0216
      3 C           1.9846   32.1998    5.6682 C.3     1  UNL1        0.0689
      4 N           3.2933   32.8444    5.7444 N.3     1  UNL1       -0.2973
      5 C           3.4891   33.4607    7.0596 C.3     1  UNL1        0.0726
      6 C           3.4655   32.4119    8.1871 C.3     1  UNL1        0.0635
      7 H           3.3554   33.5621    5.0219 H       1  UNL1        0.1232
      8 F           2.1950   27.0651   11.5597 F       1  UNL1       -0.2042
      9 C           2.1929   28.1426   10.7641 C.ar    1  UNL1        0.1401
     10 C           0.9847   28.7192   10.3927 C.ar    1  UNL1        0.0293
     11 C           0.9794   29.8362    9.5533 C.ar    1  UNL1       -0.0020
     12 C           2.1853   30.3758    9.0771 C.ar    1  UNL1       -0.0222
     13 C           3.3955   29.7844    9.4845 C.ar    1  UNL1       -0.0020
     14 C           3.3986   28.6687   10.3225 C.ar    1  UNL1        0.0293
     15 C           3.6623   33.0920    9.5600 C.3     1  UNL1        0.2070
     16 O           2.4420   33.1108   10.3128 O.3     1  UNL1       -0.4753
     17 C           1.7389   34.2918   10.2981 C.ar    1  UNL1        0.1418
     18 C           0.3594   34.1758   10.5702 C.ar    1  UNL1        0.0402
     19 C          -0.4691   35.3045   10.6246 C.ar    1  UNL1        0.0433
     20 C           0.1151   36.5351   10.4115 C.ar    1  UNL1        0.1766
     21 C           1.4515   36.6518   10.1194 C.ar    1  UNL1        0.1794
     22 C           2.2854   35.5527   10.0386 C.ar    1  UNL1        0.0770
     23 O           1.8340   37.9456    9.9453 O.3     1  UNL1       -0.4345
     24 C           0.6085   38.6331   10.2741 C.3     1  UNL1        0.4294
     25 O          -0.5087   37.7448   10.4684 O.3     1  UNL1       -0.4346
@<TRIPOS>BOND
     1     8     9    1
     2     9    10   ar
     3     9    14   ar
     4    10    11   ar
     5    11    12   ar
     6    12    13   ar
     7     1     2    1
     8     1     6    1
     9     1    12    1
    10     2     3    1
    11     3     4    1
    12     4     5    1
    13     4     7    1
    14     5     6    1
    15     6    15    1
    16    15    16    1
    17    16    17    1
    18    17    18   ar
    19    17    22   ar
    20    18    19   ar
    21    19    20   ar
    22    20    21   ar
    23    20    25    1
    24    21    22   ar
    25    21    23    1
    26    23    24    1
    27    24    25    1
    28    13    14   ar
#	Name:			CHEMBL493
#	Creating user name:	trannguyen
#	Creation time:		Tue Feb  8 18:26:14 2022


#	Modifying user name:	trannguyen
#	Modification time:	Tue Feb  8 18:26:14 2022

@<TRIPOS>MOLECULE
CHEMBL493
 46 52 0 0 0
SMALL
GASTEIGER

@<TRIPOS>ATOM
      1 C          15.3000   30.5969    9.4201 C.3     1  UNL1        0.1561
      2 C          16.6976   31.0759    8.9410 C.2     1  UNL1        0.2440
      3 O          17.7206   30.8713    9.5911 O.2     1  UNL1       -0.2731
      4 N          16.6906   31.8658    7.8167 N.am    1  UNL1       -0.2734
      5 C          17.8616   32.5469    7.2948 C.3     1  UNL1        0.0937
      6 C          17.4681   32.9507    5.8733 C.3     1  UNL1        0.0234
      7 C          15.9375   32.9310    5.8969 C.3     1  UNL1        0.0285
      8 C          15.6597   31.7376    6.8067 C.3     1  UNL1        0.1465
      9 C          14.2196   31.5811    7.3389 C.3     1  UNL1        0.2754
     10 O          13.4874   30.8108    6.3939 O.3     1  UNL1       -0.3478
     11 O          13.5290   32.7958    7.5392 O.3     1  UNL1       -0.2976
     12 C          12.4317   32.5308    8.4358 C.3     1  UNL1        0.2253
     13 C          12.9646   31.3041    9.2070 C.2     1  UNL1        0.2719
     14 O          12.4712   30.8048   10.2128 O.2     1  UNL1       -0.2704
     15 N          14.1250   30.8721    8.5747 N.am    1  UNL1       -0.2271
     16 H          13.5330   31.3139    5.5642 H       1  UNL1        0.2145
     17 N          11.2419   32.1785    7.6736 N.am    1  UNL1       -0.2787
     18 C          10.9495   32.6701    6.4186 C.2     1  UNL1        0.2293
     19 O          11.6931   33.4543    5.8319 O.2     1  UNL1       -0.2746
     20 H          10.5158   31.7237    8.2106 H       1  UNL1        0.1519
     21 C           9.5849   32.2244    5.8333 C.3     1  UNL1        0.1141
     22 C           8.4519   32.2915    6.8528 C.2     1  UNL1       -0.0190
     23 C           7.1788   32.2307    6.4003 C.2     1  UNL1       -0.0112
     24 C           5.9905   32.5079    7.2367 C.ar    1  UNL1       -0.0019
     25 C           5.9433   32.8260    8.6013 C.ar    1  UNL1       -0.0002
     26 C           4.7279   33.1417    9.2292 C.ar    1  UNL1        0.0015
     27 C           3.5173   33.1714    8.5232 C.ar    1  UNL1        0.0170
     28 C           3.5753   32.8506    7.1668 C.ar    1  UNL1        0.0567
     29 N           2.5986   32.7884    6.1969 N.ar    1  UNL1       -0.3483
     30 H           1.6201   32.9918    6.3405 H       1  UNL1        0.1664
     31 C           3.1441   32.3772    5.0095 C.ar    1  UNL1        0.0879
     32 BR          2.1762   32.1126    3.4423 Br      1  UNL1       -0.0305
     33 C           4.4888   32.1769    5.1980 C.ar    1  UNL1        0.0029
     34 C           4.7693   32.5099    6.5436 C.ar    1  UNL1        0.0133
     35 C           5.5626   31.6503    4.3224 C.3     1  UNL1        0.0488
     36 C           7.0008   31.9352    4.8871 C.3     1  UNL1        0.0843
     37 N           7.8172   32.8620    4.0527 N.3     1  UNL1       -0.2681
     38 C           7.1509   34.1360    3.7769 C.3     1  UNL1        0.0899
     39 C           9.1650   33.1090    4.6293 C.3     1  UNL1        0.0859
     40 C          12.2179   33.7526    9.3686 C.3     1  UNL1        0.0516
     41 C          10.7722   33.8556    9.8799 C.3     1  UNL1        0.0047
     42 C          12.6243   35.0877    8.7303 C.3     1  UNL1        0.0047
     43 C          15.3353   29.1595    9.9708 C.3     1  UNL1        0.0294
     44 C          14.6346   29.2138   12.3750 C.3     1  UNL1        0.0001
     45 C          15.8137   28.9740   11.4247 C.3     1  UNL1        0.0021
     46 C          16.4107   27.5972   11.6976 C.3     1  UNL1        0.0001
@<TRIPOS>BOND
     1    44    45    1
     2    45    46    1
     3    45    43    1
     4    43     1    1
     5     1     2    1
     6     1    15    1
     7     2     3    2
     8     2     4   am
     9     4     5    1
    10     4     8    1
    11     5     6    1
    12     6     7    1
    13     7     8    1
    14     8     9    1
    15     9    10    1
    16     9    11    1
    17     9    15    1
    18    10    16    1
    19    11    12    1
    20    12    13    1
    21    12    40    1
    22    12    17    1
    23    17    18   am
    24    17    20    1
    25    18    19    2
    26    18    21    1
    27    21    22    1
    28    21    39    1
    29    22    23    2
    30    23    24    1
    31    23    36    1
    32    24    25   ar
    33    24    34   ar
    34    25    26   ar
    35    26    27   ar
    36    27    28   ar
    37    28    29   ar
    38    28    34   ar
    39    29    31   ar
    40    29    30    1
    41    31    33   ar
    42    31    32    1
    43    33    34   ar
    44    33    35    1
    45    35    36    1
    46    36    37    1
    47    37    39    1
    48    37    38    1
    49    40    41    1
    50    40    42    1
    51    13    14    2
    52    13    15   am
#	Name:			CHEMBL495778
#	Creating user name:	trannguyen
#	Creation time:		Tue Feb  8 18:26:14 2022


#	Modifying user name:	trannguyen
#	Modification time:	Tue Feb  8 18:26:14 2022

@<TRIPOS>MOLECULE
CHEMBL495778
 13 13 0 0 0
SMALL
GASTEIGER

@<TRIPOS>ATOM
      1 C           2.3521   30.1266   10.0887 C.3     1  UNL1        0.2970
      2 O           1.8932   30.8696   11.2043 O.3     1  UNL1       -0.3460
      3 O           1.3414   30.1690    9.0832 O.3     1  UNL1       -0.4172
      4 C           1.8310   30.7997    7.9873 C.2     1  UNL1        0.3465
      5 O           1.2260   30.9820    6.9480 O.2     1  UNL1       -0.2447
      6 C           3.2044   31.2283    8.2167 C.2     1  UNL1        0.1207
      7 C           3.5057   30.8360    9.4528 C.2     1  UNL1        0.1896
      8 H           1.2100   30.3130   11.6103 H       1  UNL1        0.2146
      9 C           3.7051   27.9768   10.0776 C.2     1  UNL1       -0.0027
     10 C           2.6437   28.6877   10.5082 C.2     1  UNL1        0.0261
     11 C           1.6551   28.0379   11.4463 C.3     1  UNL1        0.0330
     12 O           4.6680   31.0240   10.1562 O.2     1  UNL1       -0.4691
     13 C           5.8701   31.0596    9.3969 C.3     1  UNL1        0.2523
@<TRIPOS>BOND
     1     9    10    2
     2    10    11    1
     3    10     1    1
     4     1     2    1
     5     1     3    1
     6     1     7    1
     7     2     8    1
     8     3     4    1
     9     4     5    2
    10     4     6    1
    11     6     7    2
    12     7    12    1
    13    12    13    1
#	Name:			CHEMBL496
#	Creating user name:	trannguyen
#	Creation time:		Tue Feb  8 18:26:14 2022


#	Modifying user name:	trannguyen
#	Modification time:	Tue Feb  8 18:26:14 2022

@<TRIPOS>MOLECULE
CHEMBL496
 23 24 0 0 0
SMALL
GASTEIGER

@<TRIPOS>ATOM
      1 C           2.7361   32.2689    8.4154 C.3     1  UNL1        0.0606
      2 O           0.1104   31.3353    8.8508 O.3     1  UNL1       -0.5049
      3 C           1.1234   30.4785    9.2006 C.ar    1  UNL1        0.1412
      4 C           0.8208   29.2265    9.7494 C.ar    1  UNL1        0.0918
      5 CL         -0.8198   28.7425    9.9709 Cl      1  UNL1       -0.0791
      6 C           1.8393   28.3631   10.1289 C.ar    1  UNL1        0.0267
      7 C           3.1682   28.7571    9.9665 C.ar    1  UNL1        0.0689
      8 CL          4.3809   27.6315   10.4807 Cl      1  UNL1       -0.0813
      9 C           3.4852   30.0164    9.4167 C.ar    1  UNL1        0.0675
     10 CL          5.1547   30.4799    9.2700 Cl      1  UNL1       -0.0816
     11 C           2.4543   30.8949    9.0077 C.ar    1  UNL1        0.0283
     12 H          -0.7380   30.9059    9.0737 H       1  UNL1        0.2922
     13 C           3.4119   32.2819    7.0501 C.ar    1  UNL1        0.0283
     14 C           2.7429   31.7518    5.9303 C.ar    1  UNL1        0.1412
     15 O           1.4864   31.2285    6.0995 O.3     1  UNL1       -0.5049
     16 C           3.3373   31.7341    4.6626 C.ar    1  UNL1        0.0918
     17 CL          2.4879   31.0869    3.3076 Cl      1  UNL1       -0.0791
     18 C           4.6210   32.2296    4.4834 C.ar    1  UNL1        0.0267
     19 C           5.3181   32.7387    5.5797 C.ar    1  UNL1        0.0689
     20 CL          6.9249   33.3135    5.2796 Cl      1  UNL1       -0.0813
     21 C           4.7284   32.7647    6.8606 C.ar    1  UNL1        0.0675
     22 CL          5.6511   33.3728    8.2034 Cl      1  UNL1       -0.0816
     23 H           1.1868   30.8762    5.2397 H       1  UNL1        0.2922
@<TRIPOS>BOND
     1     2     3    1
     2     2    12    1
     3     3     4   ar
     4     3    11   ar
     5     4     5    1
     6     4     6   ar
     7     6     7   ar
     8     7     8    1
     9     7     9   ar
    10     9    10    1
    11     9    11   ar
    12    11     1    1
    13     1    13    1
    14    13    14   ar
    15    13    21   ar
    16    14    15    1
    17    14    16   ar
    18    15    23    1
    19    16    17    1
    20    16    18   ar
    21    18    19   ar
    22    19    20    1
    23    19    21   ar
    24    21    22    1
#	Name:			CHEMBL498847
#	Creating user name:	trannguyen
#	Creation time:		Tue Feb  8 18:26:14 2022


#	Modifying user name:	trannguyen
#	Modification time:	Tue Feb  8 18:26:14 2022

@<TRIPOS>MOLECULE
CHEMBL498847
 14 14 0 0 0
SMALL
GASTEIGER

@<TRIPOS>ATOM
      1 C           4.2836   31.7538    8.9927 C.3     1  UNL1        0.0719
      2 C           4.1768   30.3816    9.5559 C.ar    1  UNL1        0.1220
      3 N           5.1503   29.4918    9.5373 N.ar    1  UNL1       -0.2277
      4 C           4.6542   28.3737   10.1493 C.ar    1  UNL1        0.1379
      5 C           3.3546   28.5788   10.5365 C.ar    1  UNL1        0.1744
      6 N           3.0395   29.8637   10.1603 N.ar    1  UNL1       -0.2972
      7 N           2.5014   27.6523   11.2020 N.pl3   1  UNL1       -0.1669
      8 O           2.3005   26.5765   10.6228 O.2     1  UNL1       -0.1711
      9 O           2.0121   27.9798   12.2887 O.co2   1  UNL1       -0.7758
     10 C           1.7785   30.5777   10.3017 C.3     1  UNL1        0.1377
     11 C           0.7621   30.2328    9.2033 C.3     1  UNL1        0.1332
     12 C          -0.2446   29.1969    9.6881 C.3     1  UNL1        0.0338
     13 O           0.0391   31.3828    8.7696 O.3     1  UNL1       -0.3825
     14 H          -0.4129   31.7786    9.5410 H       1  UNL1        0.2104
@<TRIPOS>UNITY_ATOM_ATTR
9 1
charge -1
@<TRIPOS>BOND
     1     1     2    1
     2     2     3   ar
     3     2     6   ar
     4     3     4   ar
     5     4     5   ar
     6     5     7    1
     7     5     6   ar
     8     7     8    2
     9     7     9    1
    10     6    10    1
    11    10    11    1
    12    11    12    1
    13    11    13    1
    14    13    14    1
#	Name:			CHEMBL498
#	Creating user name:	trannguyen
#	Creation time:		Tue Feb  8 18:26:14 2022


#	Modifying user name:	trannguyen
#	Modification time:	Tue Feb  8 18:26:14 2022

@<TRIPOS>MOLECULE
CHEMBL498
 19 19 0 0 0
SMALL
GASTEIGER

@<TRIPOS>ATOM
      1 S           3.8239   33.8608    9.0579 S.O2    1  UNL1        0.0768
      2 O           5.1621   34.3871    8.9103 O.2     1  UNL1       -0.1498
      3 O           2.9179   34.4075   10.0488 O.2     1  UNL1       -0.1498
      4 C           3.9118   32.1078    9.3347 C.ar    1  UNL1        0.1253
      5 C           2.7350   31.3580    9.4147 C.ar    1  UNL1        0.0211
      6 C           2.8095   29.9822    9.6419 C.ar    1  UNL1        0.0128
      7 C           4.0549   29.3656    9.7698 C.ar    1  UNL1        0.0578
      8 CL          4.1428   27.6708   10.0522 Cl      1  UNL1       -0.0822
      9 C           5.2302   30.1120    9.6729 C.ar    1  UNL1        0.0128
     10 C           5.1623   31.4888    9.4489 C.ar    1  UNL1        0.0211
     11 N           2.6053   33.7789    5.3812 N.am    1  UNL1       -0.2878
     12 C           3.5202   33.6266    6.3809 C.2     1  UNL1        0.3194
     13 O           4.6614   33.2253    6.2075 O.2     1  UNL1       -0.2512
     14 N           3.0013   33.9532    7.6189 N.am    1  UNL1       -0.1693
     15 H           1.6863   34.1287    5.6016 H       1  UNL1        0.1510
     16 H           2.0398   34.2436    7.7335 H       1  UNL1        0.1781
     17 C           2.9199   33.4737    4.0012 C.3     1  UNL1        0.0910
     18 C           3.1684   30.9747    3.8826 C.3     1  UNL1        0.0018
     19 C           2.2815   32.1636    3.5468 C.3     1  UNL1        0.0213
@<TRIPOS>BOND
     1    18    19    1
     2    19    17    1
     3    17    11    1
     4    11    12   am
     5    11    15    1
     6    12    13    2
     7    12    14   am
     8    14     1    1
     9    14    16    1
    10     1     2    2
    11     1     3    2
    12     1     4    1
    13     4     5   ar
    14     4    10   ar
    15     5     6   ar
    16     6     7   ar
    17     7     8    1
    18     7     9   ar
    19     9    10   ar
#	Name:			CHEMBL499815
#	Creating user name:	trannguyen
#	Creation time:		Tue Feb  8 18:26:14 2022


#	Modifying user name:	trannguyen
#	Modification time:	Tue Feb  8 18:26:14 2022

@<TRIPOS>MOLECULE
CHEMBL499815
 51 55 0 0 0
SMALL
GASTEIGER

@<TRIPOS>ATOM
      1 C           5.1580   31.7022    9.0727 C.3     1  UNL1        0.2796
      2 O           5.9077   32.5683    8.2036 O.3     1  UNL1       -0.3250
      3 C           5.3949   32.4551    6.8359 C.3     1  UNL1        0.1790
      4 C           4.0288   33.1436    6.6631 C.3     1  UNL1        0.2058
      5 C           3.2580   33.2020    7.9916 C.3     1  UNL1        0.2198
      6 C           3.6757   32.1123    9.0005 C.3     1  UNL1        0.2564
      7 C           6.4811   33.0731    5.9346 C.3     1  UNL1        0.1694
      8 O           6.0112   34.0512    4.9968 O.3     1  UNL1       -0.3794
      9 H           5.0375   33.9155    4.9250 H       1  UNL1        0.2105
     10 O           5.6872   31.6434   10.4396 O.3     1  UNL1       -0.3303
     11 C           8.5083   40.1015   11.7998 C.2     1  UNL1       -0.0068
     12 C           9.1270   39.2974   10.9258 C.2     1  UNL1       -0.0183
     13 C           8.1987   38.8714    9.4461 C.3     1  UNL1        0.0207
     14 C           9.5013   38.4864    9.5305 C.3     1  UNL1        0.0041
     15 C           8.4813   37.1831   10.7864 C.3     1  UNL1        0.0004
     16 C           9.2096   35.8023   11.0549 C.3     1  UNL1        0.0027
     17 C           9.0010   33.9726   10.9790 C.3     1  UNL1        0.0029
     18 C           9.8683   33.2897   12.1482 C.3     1  UNL1        0.0001
     19 C           7.4832   33.3264   11.2922 C.3     1  UNL1        0.0297
     20 C           7.1387   31.8716   10.6973 C.3     1  UNL1        0.1184
     21 C           8.0597   31.2762    9.5739 C.3     1  UNL1        0.0407
     22 C           9.5766   31.6907    9.3477 C.3     1  UNL1        0.1013
     23 C           9.7616   33.2463    9.6903 C.3     1  UNL1        0.0107
     24 C          11.0923   34.0141    9.2485 C.3     1  UNL1        0.0006
     25 C          11.2407   35.6275    9.5057 C.3     1  UNL1        0.0027
     26 C          10.0019   36.5717   10.0109 C.3     1  UNL1        0.0287
     27 C           8.6731   37.4907    8.7539 C.3     1  UNL1        0.0068
     28 C          10.5501   38.0640   11.1461 C.3     1  UNL1        0.1286
     29 O          11.7787   38.6172   10.6762 O.3     1  UNL1       -0.3804
     30 H          11.6166   39.5573   10.4780 H       1  UNL1        0.2108
     31 C           9.9225   31.1504    7.8415 C.2     1  UNL1        0.3133
     32 O           9.1414   31.1306    6.9310 O.2     1  UNL1       -0.2503
     33 O          11.1957   30.7197    7.6162 O.3     1  UNL1       -0.4802
     34 H          11.3218   30.8155    6.6406 H       1  UNL1        0.2951
     35 O           3.1970   32.5455    5.6551 O.3     1  UNL1       -0.2384
     36 S           2.6962   33.4881    4.4089 S.3     1  UNL1       -0.0001
     37 O           1.2404   33.3735    4.4935 O.2     1  UNL1       -0.3452
     38 O           3.1693   34.8512    4.7985 O.2     1  UNL1       -0.3452
     39 O           3.2675   32.9575    3.1990 O.3     1  UNL1       -0.2682
     40 O           3.5178   34.4430    8.6610 O.3     1  UNL1       -0.2371
     41 S           2.6329   34.8486    9.9670 S.3     1  UNL1       -0.0000
     42 O           2.3849   36.3031    9.7316 O.2     1  UNL1       -0.3452
     43 O           1.5070   34.0018    9.9644 O.2     1  UNL1       -0.3452
     44 O           3.6015   34.6454   11.0594 O.3     1  UNL1       -0.2682
     45 O           2.9400   30.8928    8.7248 O.3     1  UNL1       -0.4442
     46 C           2.2345   30.4007    9.7335 C.2     1  UNL1        0.3171
     47 O           2.1729   30.9480   10.9081 O.2     1  UNL1       -0.2501
     48 C           1.9002   28.9999    9.6402 C.3     1  UNL1        0.1096
     49 C           2.6523   27.8312   10.1561 C.3     1  UNL1        0.0111
     50 C           4.1673   27.6236    9.9729 C.3     1  UNL1        0.0006
     51 C           2.0262   27.4677   11.4329 C.3     1  UNL1        0.0006
@<TRIPOS>BOND
     1    11    12    2
     2    12    13    1
     3    12    28    1
     4    13    14    1
     5    13    27    1
     6    14    15    1
     7    15    16    1
     8    16    17    1
     9    16    26    1
    10    17    19    1
    11    17    23    1
    12    17    18    1
    13    19    20    1
    14    20    21    1
    15    20    10    1
    16     1     2    1
    17     1     6    1
    18     1    10    1
    19     2     3    1
    20     3     7    1
    21     3     4    1
    22     7     8    1
    23     8     9    1
    24     4     5    1
    25     4    35    1
    26    35    36    1
    27    36    37    2
    28    36    38    2
    29    36    39    1
    30     5    40    1
    31     5     6    1
    32    40    41    1
    33    41    42    2
    34    41    43    2
    35    41    44    1
    36     6    45    1
    37    45    46    1
    38    46    47    2
    39    46    48    1
    40    48    49    1
    41    49    50    1
    42    49    51    1
    43    21    22    1
    44    22    23    1
    45    22    31    1
    46    31    32    2
    47    31    33    1
    48    33    34    1
    49    23    24    1
    50    24    25    1
    51    26    25    1
    52    26    27    1
    53    26    28    1
    54    28    29    1
    55    29    30    1
#	Name:			CHEMBL499
#	Creating user name:	trannguyen
#	Creation time:		Tue Feb  8 18:26:14 2022


#	Modifying user name:	trannguyen
#	Modification time:	Tue Feb  8 18:26:14 2022

@<TRIPOS>MOLECULE
CHEMBL499
 23 24 0 0 0
SMALL
GASTEIGER

@<TRIPOS>ATOM
      1 O           3.0136   31.8874    6.9944 O.3     1  UNL1       -0.4553
      2 C           2.6792   32.1676    8.2961 C.ar    1  UNL1        0.2661
      3 N           2.6186   33.4467    8.6556 N.ar    1  UNL1       -0.1530
      4 S           2.1077   33.4311   10.2368 S.2     1  UNL1        0.1206
      5 N           2.0382   31.7982   10.5062 N.ar    1  UNL1       -0.1716
      6 C           2.4127   31.1895    9.3619 C.ar    1  UNL1        0.1954
      7 N           2.4647   29.8181    9.2589 N.pl3   1  UNL1       -0.2838
      8 C           3.7092   29.0781    9.5426 C.3     1  UNL1        0.1244
      9 C           3.7647   28.6650   11.0267 C.3     1  UNL1        0.1636
     10 O           2.6050   27.9109   11.4189 O.3     1  UNL1       -0.3501
     11 C           1.4079   28.6752   11.1868 C.3     1  UNL1        0.1636
     12 C           1.2784   29.0390    9.6980 C.3     1  UNL1        0.1244
     13 C           1.9128   32.0984    6.0832 C.3     1  UNL1        0.2376
     14 C           2.2539   33.2019    5.0733 C.3     1  UNL1        0.1698
     15 O           2.9655   34.2862    5.6802 O.3     1  UNL1       -0.3793
     16 H           2.3511   34.6916    6.3173 H       1  UNL1        0.2106
     17 C           3.0681   32.6569    3.8774 C.3     1  UNL1        0.1020
     18 N           4.0871   31.6443    4.2168 N.3     1  UNL1       -0.2975
     19 H           3.9272   31.3592    5.1877 H       1  UNL1        0.1232
     20 C           6.3494   30.9740    3.4422 C.3     1  UNL1        0.0158
     21 C           5.4884   32.0982    4.0450 C.3     1  UNL1        0.0421
     22 C           6.0709   32.4322    5.4358 C.3     1  UNL1        0.0158
     23 C           5.5956   33.3612    3.1695 C.3     1  UNL1        0.0158
@<TRIPOS>BOND
     1    20    21    1
     2    21    22    1
     3    21    23    1
     4    21    18    1
     5    18    17    1
     6    18    19    1
     7    14    15    1
     8    14    13    1
     9    14    17    1
    10    15    16    1
    11    13     1    1
    12     1     2    1
    13     2     3   ar
    14     2     6   ar
    15     3     4   ar
    16     4     5   ar
    17     5     6   ar
    18     6     7    1
    19     7     8    1
    20     7    12    1
    21     8     9    1
    22     9    10    1
    23    10    11    1
    24    11    12    1
#	Name:			CHEMBL49
#	Creating user name:	trannguyen
#	Creation time:		Tue Feb  8 18:26:14 2022


#	Modifying user name:	trannguyen
#	Modification time:	Tue Feb  8 18:26:14 2022

@<TRIPOS>MOLECULE
CHEMBL49
 28 31 0 0 0
SMALL
GASTEIGER

@<TRIPOS>ATOM
      1 C           7.8585   33.9286    1.2244 C.3     1  UNL1        0.0234
      2 C           6.8719   34.0193    0.0495 C.3     1  UNL1        0.1009
      3 O           7.4385   36.3946   -1.2281 O.2     1  UNL1       -0.2745
      4 C           7.8182   35.3533   -1.7634 C.2     1  UNL1        0.2313
      5 C           8.6895   35.4349   -2.9967 C.3     1  UNL1        0.0861
      6 C           8.7033   34.1751   -3.8608 C.3     1  UNL1        0.0173
      7 C           9.8370   34.2866   -4.9158 C.3     1  UNL1        0.0010
      8 C           9.1938   33.9763   -6.2593 C.3     1  UNL1        0.0000
      9 C           7.7736   34.4815   -6.0943 C.3     1  UNL1        0.0000
     10 C           7.4061   34.0204   -4.6897 C.3     1  UNL1        0.0010
     11 C           8.9422   32.9758   -2.9492 C.3     1  UNL1        0.0861
     12 C           7.9493   32.8883   -1.8204 C.2     1  UNL1        0.2313
     13 O           7.5775   31.7804   -1.4097 O.2     1  UNL1       -0.2745
     14 N           7.5666   34.0891   -1.2374 N.am    1  UNL1       -0.2299
     15 C           7.3872   32.9966    2.3461 C.3     1  UNL1        0.0191
     16 C           5.9580   33.3127    2.8160 C.3     1  UNL1        0.0723
     17 N           5.2497   32.1408    3.3683 N.3     1  UNL1       -0.2698
     18 C           5.8964   31.6243    4.6010 C.3     1  UNL1        0.0939
     19 C           5.8257   32.5874    5.8113 C.3     1  UNL1        0.1109
     20 N           4.4426   33.0118    6.0772 N.pl3   1  UNL1       -0.2753
     21 C           3.6870   33.4592    4.8952 C.3     1  UNL1        0.1109
     22 C           3.8398   32.4641    3.7190 C.3     1  UNL1        0.0939
     23 C           3.7470   32.2230    6.9856 C.ar    1  UNL1        0.2203
     24 N           2.4517   31.9486    6.7574 N.ar    1  UNL1       -0.2121
     25 C           1.7921   31.2086    7.6660 C.ar    1  UNL1        0.1034
     26 C           2.3675   30.7304    8.8124 C.ar    1  UNL1        0.0414
     27 C           3.6857   31.0618    8.9770 C.ar    1  UNL1        0.1034
     28 N           4.3840   31.7923    8.0888 N.ar    1  UNL1       -0.2121
@<TRIPOS>BOND
     1     3     4    2
     2     4     5    1
     3     4    14   am
     4     5     6    1
     5     6     7    1
     6     6    10    1
     7     6    11    1
     8     7     8    1
     9     8     9    1
    10     9    10    1
    11    11    12    1
    12    12    13    2
    13    12    14   am
    14    14     2    1
    15     2     1    1
    16     1    15    1
    17    15    16    1
    18    16    17    1
    19    17    18    1
    20    17    22    1
    21    18    19    1
    22    19    20    1
    23    20    23    1
    24    20    21    1
    25    23    24   ar
    26    23    28   ar
    27    24    25   ar
    28    25    26   ar
    29    26    27   ar
    30    27    28   ar
    31    21    22    1
#	Name:			CHEMBL4
#	Creating user name:	trannguyen
#	Creation time:		Tue Feb  8 18:26:14 2022


#	Modifying user name:	trannguyen
#	Modification time:	Tue Feb  8 18:26:14 2022

@<TRIPOS>MOLECULE
CHEMBL4
 27 30 0 0 0
SMALL
GASTEIGER

@<TRIPOS>ATOM
      1 C           0.7303   32.3821    9.1539 C.3     1  UNL1        0.0284
      2 C           2.1784   32.4903    9.6389 C.3     1  UNL1        0.1292
      3 C           2.9607   33.3577    8.6444 C.3     1  UNL1        0.2278
      4 O           4.3008   33.5676    9.0865 O.3     1  UNL1       -0.4707
      5 C           4.9625   32.3729    9.3010 C.ar    1  UNL1        0.1697
      6 C           6.3799   32.3970    9.1834 C.ar    1  UNL1        0.1116
      7 C           7.0499   31.1753    9.3852 C.ar    1  UNL1        0.1565
      8 F           8.3873   31.0986    9.3145 F       1  UNL1       -0.2028
      9 C           6.3757   30.0019    9.7034 C.ar    1  UNL1        0.0358
     10 C           4.9884   30.0181    9.8315 C.ar    1  UNL1        0.0603
     11 C           4.2867   28.7729   10.2146 C.ar    1  UNL1        0.2048
     12 O           4.8908   27.7112   10.3570 O.2     1  UNL1       -0.2862
     13 C           2.8330   28.8363   10.4627 C.ar    1  UNL1        0.1314
     14 C           2.2286   30.0131   10.2372 C.ar    1  UNL1        0.0857
     15 N           2.8351   31.1671    9.7642 N.ar    1  UNL1       -0.3215
     16 C           4.2501   31.1960    9.6311 C.ar    1  UNL1        0.0988
     17 N           7.0382   33.6091    8.8681 N.pl3   1  UNL1       -0.3005
     18 C           7.9190   33.6233    7.6824 C.3     1  UNL1        0.1083
     19 C           8.4072   35.0629    7.3899 C.3     1  UNL1        0.0938
     20 N           9.0794   35.7357    8.5262 N.3     1  UNL1       -0.2686
     21 C          10.3924   35.1526    8.7975 C.3     1  UNL1        0.0897
     22 C           8.1936   35.6545    9.7109 C.3     1  UNL1        0.0938
     23 C           7.6571   34.2416   10.0561 C.3     1  UNL1        0.1083
     24 C           2.0348   27.6907   10.9478 C.2     1  UNL1        0.3427
     25 O           1.2104   27.7791   11.8453 O.2     1  UNL1       -0.2449
     26 O           2.2905   26.5226   10.3190 O.3     1  UNL1       -0.4770
     27 H           2.9692   26.5895    9.6034 H       1  UNL1        0.2954
@<TRIPOS>BOND
     1     1     2    1
     2     2     3    1
     3     2    15    1
     4     3     4    1
     5     4     5    1
     6     5     6   ar
     7     5    16   ar
     8     6    17    1
     9     6     7   ar
    10    17    18    1
    11    17    23    1
    12    18    19    1
    13    19    20    1
    14    20    21    1
    15    20    22    1
    16    22    23    1
    17     7     8    1
    18     7     9   ar
    19     9    10   ar
    20    10    11   ar
    21    10    16   ar
    22    11    12    2
    23    11    13   ar
    24    13    24    1
    25    13    14   ar
    26    24    25    2
    27    24    26    1
    28    26    27    1
    29    14    15   ar
    30    15    16   ar
#	Name:			CHEMBL500
#	Creating user name:	trannguyen
#	Creation time:		Tue Feb  8 18:26:14 2022


#	Modifying user name:	trannguyen
#	Modification time:	Tue Feb  8 18:26:14 2022

@<TRIPOS>MOLECULE
CHEMBL500
 21 22 0 0 0
SMALL
GASTEIGER

@<TRIPOS>ATOM
      1 O           3.1623   31.7191    8.7513 O.3     1  UNL1       -0.4728
      2 C           3.2191   30.4588    9.2913 C.ar    1  UNL1        0.1400
      3 C           4.4209   29.8022    9.6019 C.ar    1  UNL1        0.0370
      4 C           4.4236   28.5147   10.1378 C.ar    1  UNL1        0.0046
      5 C           3.2310   27.8424   10.4090 C.ar    1  UNL1        0.0172
      6 C           2.0365   28.5126   10.1225 C.ar    1  UNL1        0.0596
      7 N           0.7326   28.0898   10.2948 N.ar    1  UNL1       -0.3519
      8 H           0.4637   27.1982   10.6704 H       1  UNL1        0.1660
      9 C          -0.1330   29.0633    9.8685 C.ar    1  UNL1        0.0725
     10 C           0.6178   30.1299    9.4297 C.ar    1  UNL1        0.0229
     11 C           2.0006   29.7963    9.5770 C.ar    1  UNL1        0.0510
     12 C           4.2224   32.0764    7.8527 C.3     1  UNL1        0.2358
     13 C           3.8158   33.3168    7.0296 C.3     1  UNL1        0.1697
     14 O           3.1623   34.2973    7.8448 O.3     1  UNL1       -0.3793
     15 H           3.7145   34.4345    8.6328 H       1  UNL1        0.2106
     16 C           2.8840   32.8873    5.8819 C.3     1  UNL1        0.1020
     17 N           2.8568   31.4279    5.6760 N.3     1  UNL1       -0.2964
     18 H           3.5483   31.0233    6.3148 H       1  UNL1        0.1233
     19 C           2.2644   31.8210    3.3225 C.3     1  UNL1        0.0171
     20 C           3.1843   31.0659    4.2865 C.3     1  UNL1        0.0541
     21 C           4.6427   31.3897    3.9455 C.3     1  UNL1        0.0171
@<TRIPOS>BOND
     1    19    20    1
     2    20    21    1
     3    20    17    1
     4    17    16    1
     5    17    18    1
     6    16    13    1
     7    13    14    1
     8    13    12    1
     9    14    15    1
    10    12     1    1
    11     1     2    1
    12     2     3   ar
    13     2    11   ar
    14     3     4   ar
    15     4     5   ar
    16     5     6   ar
    17     6     7   ar
    18     6    11   ar
    19     7     8    1
    20     7     9   ar
    21     9    10   ar
    22    10    11   ar
#	Name:			CHEMBL501307
#	Creating user name:	trannguyen
#	Creation time:		Tue Feb  8 18:26:14 2022


#	Modifying user name:	trannguyen
#	Modification time:	Tue Feb  8 18:26:14 2022

@<TRIPOS>MOLECULE
CHEMBL501307
 17 16 0 0 0
SMALL
GASTEIGER

@<TRIPOS>ATOM
      1 C           2.7033   27.8137   10.4482 C.3     1  UNL1        0.0770
      2 C           4.7689   29.4150   10.1201 C.1     1  UNL1       -0.0141
      3 C           3.8356   28.6915   10.2683 C.1     1  UNL1       -0.0779
      4 C           6.7751   30.9701    9.8017 C.1     1  UNL1       -0.0779
      5 C           5.8417   30.2466    9.9498 C.1     1  UNL1       -0.0141
      6 C           7.9074   31.8479    9.6220 C.3     1  UNL1        0.0770
      7 C           8.4085   31.8169    8.1687 C.3     1  UNL1        0.0140
      8 C          10.3921   30.2862    8.5830 C.3     1  UNL1        0.0000
      9 C           9.1042   30.4982    7.8018 C.3     1  UNL1        0.0010
     10 C           1.4989   28.5893   11.0048 C.3     1  UNL1        0.0140
     11 C           0.4813   28.9566    9.9150 C.3     1  UNL1        0.0016
     12 C           1.0419   30.0010    8.9381 C.3     1  UNL1        0.0117
     13 C           0.4804   31.4078    9.1585 C.3     1  UNL1        0.1094
     14 C           1.4309   32.3299    9.8693 C.2     1  UNL1        0.3138
     15 O           2.3359   31.9931   10.6202 O.2     1  UNL1       -0.2503
     16 O           1.2337   33.6272    9.5763 O.3     1  UNL1       -0.4802
     17 H           1.9149   34.0955   10.1035 H       1  UNL1        0.2951
@<TRIPOS>BOND
     1     8     9    1
     2     9     7    1
     3     7     6    1
     4     6     4    1
     5     4     5    3
     6     5     2    1
     7     2     3    3
     8     3     1    1
     9     1    10    1
    10    10    11    1
    11    11    12    1
    12    12    13    1
    13    13    14    1
    14    14    15    2
    15    14    16    1
    16    16    17    1
#	Name:			CHEMBL502620
#	Creating user name:	trannguyen
#	Creation time:		Tue Feb  8 18:26:14 2022


#	Modifying user name:	trannguyen
#	Modification time:	Tue Feb  8 18:26:14 2022

@<TRIPOS>MOLECULE
CHEMBL502620
 62 68 0 0 0
SMALL
GASTEIGER

@<TRIPOS>ATOM
      1 C          10.3289   36.5444    3.4725 C.3     1  UNL1        0.1048
      2 O           9.3516   37.5428    3.1008 O.3     1  UNL1       -0.3858
      3 C          10.5143   35.5399    2.3107 C.3     1  UNL1        0.0621
      4 C           9.2299   34.7589    1.9984 C.3     1  UNL1        0.1449
      5 C           8.6409   34.1284    3.2512 C.ar    1  UNL1        0.0352
      6 C           8.7253   34.7907    4.4878 C.ar    1  UNL1       -0.0084
      7 C           7.8469   34.4199    5.5233 C.ar    1  UNL1       -0.0004
      8 C           6.8798   33.4283    5.3155 C.ar    1  UNL1        0.0446
      9 C           6.8773   32.6981    4.1336 C.ar    1  UNL1        0.0755
     10 C           7.8182   32.9927    3.1433 C.ar    1  UNL1        0.1347
     11 O           7.9288   32.2359    2.0083 O.3     1  UNL1       -0.5057
     12 C           5.7994   31.7255    3.8732 C.2     1  UNL1        0.2016
     13 O           5.8484   30.9874    2.8909 O.2     1  UNL1       -0.2864
     14 C           4.6097   31.7178    4.7400 C.ar    1  UNL1        0.0758
     15 C           3.4420   31.0505    4.3496 C.ar    1  UNL1        0.1368
     16 O           3.3326   30.3569    3.1749 O.3     1  UNL1       -0.5054
     17 C           2.3058   31.0918    5.1532 C.ar    1  UNL1        0.0367
     18 C           2.3334   31.7883    6.3616 C.ar    1  UNL1        0.0032
     19 C           3.4961   32.4506    6.7612 C.ar    1  UNL1        0.0035
     20 C           4.6316   32.4247    5.9421 C.ar    1  UNL1        0.0450
     21 C           5.8343   33.1920    6.3310 C.2     1  UNL1        0.1959
     22 O           5.9385   33.6673    7.4541 O.2     1  UNL1       -0.2866
     23 C           9.8080   35.8369    4.7543 C.3     1  UNL1        0.1457
     24 H           8.7203   37.1311    2.4759 H       1  UNL1        0.2103
     25 H           7.2067   31.5712    1.9839 H       1  UNL1        0.2922
     26 H           4.2135   30.3421    2.7394 H       1  UNL1        0.2922
     27 C          12.7837   36.9336    2.7275 C.3     1  UNL1        0.0025
     28 C          11.6462   37.3427    3.6575 C.3     1  UNL1        0.0279
     29 C          10.9403   35.1589    5.5422 C.2     1  UNL1        0.3230
     30 O          11.6894   34.3018    5.1168 O.2     1  UNL1       -0.2497
     31 O          10.9081   35.6185    6.8343 O.3     1  UNL1       -0.4441
     32 C          10.7259   34.6095    7.8293 C.3     1  UNL1        0.2556
     33 O           8.3102   35.7320    1.4149 O.3     1  UNL1       -0.3283
     34 C           7.6920   35.3134    0.1914 C.3     1  UNL1        0.2368
     35 C           7.4719   36.5014   -0.7652 C.3     1  UNL1        0.0798
     36 C           8.7011   36.7973   -1.6501 C.3     1  UNL1        0.0925
     37 C           9.2187   35.4583   -2.2702 C.3     1  UNL1        0.1594
     38 C           9.6010   34.6087   -1.0363 C.3     1  UNL1        0.1462
     39 C          10.4565   33.3672   -1.2691 C.3     1  UNL1        0.0348
     40 O           8.3859   34.2266   -0.4032 O.3     1  UNL1       -0.3304
     41 N           8.4687   37.9444   -2.5669 N.3     1  UNL1       -0.2692
     42 C           7.1277   38.5062   -2.3856 C.3     1  UNL1        0.0897
     43 C           9.4640   39.0110   -2.4912 C.3     1  UNL1        0.0897
     44 O           8.1560   34.9056   -3.0908 O.3     1  UNL1       -0.3290
     45 C           8.5176   34.6477   -4.4415 C.3     1  UNL1        0.2377
     46 C           7.6667   33.4977   -5.0257 C.3     1  UNL1        0.0931
     47 C           6.4397   33.9552   -5.8189 C.3     1  UNL1        0.1450
     48 O           5.9510   32.8926   -6.6465 O.3     1  UNL1       -0.3817
     49 C           6.8058   35.1751   -6.6882 C.3     1  UNL1        0.1715
     50 C           7.2307   36.2342   -5.6641 C.3     1  UNL1        0.1473
     51 C           7.2701   37.6657   -6.1703 C.3     1  UNL1        0.0348
     52 O           8.5218   35.8650   -5.1836 O.3     1  UNL1       -0.3304
     53 H           5.8808   32.0925   -6.0981 H       1  UNL1        0.2104
     54 O           7.8866   34.7220   -7.5222 O.3     1  UNL1       -0.3280
     55 C           7.7257   34.7987   -8.9218 C.3     1  UNL1        0.2359
     56 C           9.1178   34.7672   -9.5536 C.3     1  UNL1        0.0692
     57 C           9.8699   33.5165   -9.1205 C.3     1  UNL1        0.0723
     58 C           9.0215   32.2882   -9.3416 C.2     1  UNL1        0.1777
     59 O           9.5524   31.1939   -9.5450 O.2     1  UNL1       -0.2935
     60 C           7.5024   32.4443   -9.1511 C.3     1  UNL1        0.1746
     61 C           6.7696   31.4584  -10.0520 C.3     1  UNL1        0.0402
     62 O           6.9599   33.7275   -9.4518 O.3     1  UNL1       -0.3254
@<TRIPOS>BOND
     1    27    28    1
     2     1     3    1
     3     1    23    1
     4     1     2    1
     5     1    28    1
     6     2    24    1
     7     3     4    1
     8     4     5    1
     9     4    33    1
    10    33    34    1
    11    34    35    1
    12    34    40    1
    13    35    36    1
    14    36    41    1
    15    36    37    1
    16    41    42    1
    17    41    43    1
    18    37    44    1
    19    37    38    1
    20    44    45    1
    21    45    46    1
    22    45    52    1
    23    46    47    1
    24    47    48    1
    25    47    49    1
    26    48    53    1
    27    49    54    1
    28    49    50    1
    29    54    55    1
    30    55    56    1
    31    55    62    1
    32    56    57    1
    33    57    58    1
    34    58    59    2
    35    58    60    1
    36    60    61    1
    37    60    62    1
    38    50    51    1
    39    50    52    1
    40    38    39    1
    41    38    40    1
    42     5     6   ar
    43     5    10   ar
    44     6     7   ar
    45     6    23    1
    46     7     8   ar
    47     8     9   ar
    48     8    21    1
    49     9    10   ar
    50     9    12    1
    51    10    11    1
    52    11    25    1
    53    12    13    2
    54    12    14    1
    55    14    15   ar
    56    14    20   ar
    57    15    16    1
    58    15    17   ar
    59    16    26    1
    60    17    18   ar
    61    18    19   ar
    62    19    20   ar
    63    20    21    1
    64    21    22    2
    65    23    29    1
    66    29    30    2
    67    29    31    1
    68    31    32    1
#	Name:			CHEMBL502896
#	Creating user name:	trannguyen
#	Creation time:		Tue Feb  8 18:26:14 2022


#	Modifying user name:	trannguyen
#	Modification time:	Tue Feb  8 18:26:14 2022

@<TRIPOS>MOLECULE
CHEMBL502896
 25 26 0 0 0
SMALL
GASTEIGER

@<TRIPOS>ATOM
      1 O           4.0515   32.4463    5.3168 O.3     1  UNL1       -0.4241
      2 C           3.5211   31.8935    6.4221 C.ar    1  UNL1        0.1484
      3 C           4.2512   31.9073    7.6176 C.ar    1  UNL1        0.0373
      4 C           3.6865   31.3903    8.7832 C.ar    1  UNL1       -0.0011
      5 C           2.3910   30.8498    8.7651 C.ar    1  UNL1       -0.0214
      6 C           1.6704   30.8344    7.5498 C.ar    1  UNL1       -0.0011
      7 C           2.2334   31.3597    6.3972 C.ar    1  UNL1        0.0373
      8 C           1.8139   30.2844   10.0460 C.3     1  UNL1        0.0380
      9 C           2.5821   29.0612   10.5777 C.3     1  UNL1        0.1140
     10 C           1.6909   27.9707   11.1104 C.2     1  UNL1        0.3141
     11 O           2.1679   26.9851   11.6540 O.2     1  UNL1       -0.2503
     12 O           0.3534   28.0813   10.9868 O.3     1  UNL1       -0.4802
     13 H          -0.0419   28.8527   10.5547 H       1  UNL1        0.2951
     14 C           4.8224   31.7793    4.4296 C.2     1  UNL1        0.3209
     15 O           4.3105   31.2262    3.4694 O.2     1  UNL1       -0.2497
     16 C           7.0847   34.2523    2.7773 C.3     1  UNL1        0.0155
     17 C           6.6413   32.8796    2.1951 C.3     1  UNL1        0.0019
     18 C           6.9974   31.7078    3.1359 C.3     1  UNL1        0.0111
     19 C           6.3271   31.8931    4.5228 C.3     1  UNL1        0.0995
     20 C           6.7345   33.2539    5.1311 C.3     1  UNL1        0.0111
     21 C           6.3920   34.4205    4.1794 C.3     1  UNL1        0.0019
     22 N           8.0031   34.8320   -0.6804 N.3     1  UNL1       -0.3211
     23 C           8.8243   34.6356    2.6306 C.3     1  UNL1        0.0651
     24 H           9.6918   33.5285    1.6400 H       1  UNL1        0.1189
     25 H           8.9776   34.4353    1.2323 H       1  UNL1        0.1189
@<TRIPOS>BOND
     1    22    23    1
     2    22    24    1
     3    22    25    1
     4    23    16    1
     5    16    17    1
     6    16    21    1
     7    17    18    1
     8    18    19    1
     9    19    14    1
    10    19    20    1
    11    14    15    2
    12    14     1    1
    13     1     2    1
    14     2     3   ar
    15     2     7   ar
    16     3     4   ar
    17     4     5   ar
    18     5     8    1
    19     5     6   ar
    20     8     9    1
    21     9    10    1
    22    10    11    2
    23    10    12    1
    24    12    13    1
    25     6     7   ar
    26    20    21    1
#	Name:			CHEMBL50444
#	Creating user name:	trannguyen
#	Creation time:		Tue Feb  8 18:26:14 2022


#	Modifying user name:	trannguyen
#	Modification time:	Tue Feb  8 18:26:14 2022

@<TRIPOS>MOLECULE
CHEMBL50444
 14 13 0 0 0
SMALL
GASTEIGER

@<TRIPOS>ATOM
      1 C           4.1240   30.2229    9.8823 C.3     1  UNL1        0.0305
      2 C           2.6162   29.9286    9.8528 C.3     1  UNL1        0.1096
      3 O           2.0381   30.5660   11.0220 O.3     1  UNL1       -0.3856
      4 H           2.5921   31.3392   11.2522 H       1  UNL1        0.2103
      5 C           1.8981   30.4977    8.6125 C.3     1  UNL1        0.1367
      6 C           0.4723   30.9420    8.8353 C.2     1  UNL1        0.3162
      7 O          -0.4429   30.1689    9.0843 O.2     1  UNL1       -0.2502
      8 O           0.2728   32.2708    8.7197 O.3     1  UNL1       -0.4801
      9 H           1.0718   32.8356    8.6678 H       1  UNL1        0.2951
     10 C           2.3920   28.4253   10.0511 C.3     1  UNL1        0.1367
     11 C           1.5526   28.1214   11.2681 C.2     1  UNL1        0.3162
     12 O           2.0167   27.9061   12.3691 O.2     1  UNL1       -0.2502
     13 O           0.2270   28.0593   11.0084 O.3     1  UNL1       -0.4801
     14 H           0.0453   28.1028   10.0389 H       1  UNL1        0.2951
@<TRIPOS>BOND
     1     1     2    1
     2     2     3    1
     3     2     5    1
     4     2    10    1
     5     3     4    1
     6     5     6    1
     7     6     7    2
     8     6     8    1
     9     8     9    1
    10    10    11    1
    11    11    12    2
    12    11    13    1
    13    13    14    1
#	Name:			CHEMBL504760
#	Creating user name:	trannguyen
#	Creation time:		Tue Feb  8 18:26:14 2022


#	Modifying user name:	trannguyen
#	Modification time:	Tue Feb  8 18:26:14 2022

@<TRIPOS>MOLECULE
CHEMBL504760
 11 12 0 0 0
SMALL
GASTEIGER

@<TRIPOS>ATOM
      1 C           5.0037   32.2261    6.4315 C.3     1  UNL1        0.0004
      2 C           3.7236   32.9331    5.9436 C.3     1  UNL1        0.0066
      3 C           3.1856   33.7366    7.1450 C.3     1  UNL1        0.0004
      4 C           3.9087   33.7771    4.6528 C.3     1  UNL1        0.0077
      5 C           2.4593   34.2099    4.3093 C.3     1  UNL1        0.0009
      6 C           1.6142   32.9826    4.7240 C.3     1  UNL1        0.0069
      7 C           2.6797   32.0026    5.2666 C.3     1  UNL1        0.0515
      8 C           2.1437   30.8448    6.0739 C.3     1  UNL1        0.0073
      9 C           3.4478   31.5968    4.0039 C.2     1  UNL1        0.1498
     10 O           3.3299   30.5447    3.3984 O.2     1  UNL1       -0.2961
     11 C           4.3429   32.7449    3.5814 C.3     1  UNL1        0.0645
@<TRIPOS>BOND
     1     1     2    1
     2     2     4    1
     3     2     7    1
     4     2     3    1
     5     4     5    1
     6     4    11    1
     7     5     6    1
     8     6     7    1
     9     7     9    1
    10     7     8    1
    11     9    11    1
    12     9    10    2
#	Name:			CHEMBL504781
#	Creating user name:	trannguyen
#	Creation time:		Tue Feb  8 18:26:14 2022


#	Modifying user name:	trannguyen
#	Modification time:	Tue Feb  8 18:26:14 2022

@<TRIPOS>MOLECULE
CHEMBL504781
 21 20 0 0 0
SMALL
GASTEIGER

@<TRIPOS>ATOM
      1 C           4.9209   32.1257    8.7232 C.1     1  UNL1       -0.0095
      2 C           5.4975   31.3836    9.5781 C.1     1  UNL1       -0.0509
      3 C           2.6972   31.7947    6.6067 C.1     1  UNL1       -0.0779
      4 C           3.5981   32.1693    7.4665 C.1     1  UNL1       -0.0138
      5 C           1.8619   31.3220    5.5005 C.3     1  UNL1        0.0770
      6 C           1.7703   32.2484    4.2216 C.3     1  UNL1        0.0140
      7 C           2.1274   33.7603    4.3977 C.3     1  UNL1        0.0010
      8 C           3.5410   34.1198    3.9265 C.3     1  UNL1        0.0000
      9 C           4.5222   32.9420    3.8142 C.3     1  UNL1        0.0000
     10 C           5.7735   33.0547    4.6938 C.3     1  UNL1        0.0000
     11 C           6.3012   30.8710    3.4683 C.3     1  UNL1        0.0000
     12 C           6.7091   31.8455    4.5642 C.3     1  UNL1        0.0000
     13 C           5.6937   30.0631   10.4727 C.2     1  UNL1        0.0456
     14 C           5.1945   28.7399   10.4746 C.2     1  UNL1       -0.0173
     15 C           4.1154   27.7284    9.7691 C.3     1  UNL1        0.0273
     16 C           2.5730   28.0338    9.7224 C.3     1  UNL1        0.0163
     17 C           2.0925   29.1404   10.6234 C.3     1  UNL1        0.1097
     18 C           1.3090   28.3195   11.4426 C.2     1  UNL1        0.3138
     19 O           1.9523   27.8258   12.3794 O.2     1  UNL1       -0.2503
     20 O           0.0560   28.0839   10.9129 O.3     1  UNL1       -0.4802
     21 H          -0.1886   28.3304   10.0018 H       1  UNL1        0.2951
@<TRIPOS>BOND
     1    11    12    1
     2    12    10    1
     3    10     9    1
     4     9     8    1
     5     8     7    1
     6     7     6    1
     7     6     5    1
     8     5     3    1
     9     3     4    3
    10     4     1    1
    11     1     2    3
    12     2    13    1
    13    13    14    2
    14    14    15    1
    15    15    16    1
    16    16    17    1
    17    17    18    1
    18    18    19    2
    19    18    20    1
    20    20    21    1
#	Name:			CHEMBL50588
#	Creating user name:	trannguyen
#	Creation time:		Tue Feb  8 18:26:14 2022


#	Modifying user name:	trannguyen
#	Modification time:	Tue Feb  8 18:26:14 2022

@<TRIPOS>MOLECULE
CHEMBL50588
 36 40 0 0 0
SMALL
GASTEIGER

@<TRIPOS>ATOM
      1 C           6.6028   31.9056    9.5607 C.3     1  UNL1        0.0161
      2 C           7.7582   32.8193    9.9909 C.3     1  UNL1        0.0723
      3 N           9.0166   32.0839    9.9499 N.3     1  UNL1       -0.2700
      4 C          10.1243   32.8437   10.5387 C.3     1  UNL1        0.0770
      5 C          10.6246   33.9819    9.6448 C.3     1  UNL1        0.0435
      6 C          10.9742   33.4635    8.2792 C.ar    1  UNL1       -0.0203
      7 C          11.9640   34.0914    7.5122 C.ar    1  UNL1        0.0356
      8 C          12.3601   33.5930    6.2678 C.ar    1  UNL1        0.1721
      9 C          11.7476   32.4246    5.7769 C.ar    1  UNL1        0.1721
     10 C          10.7706   31.7998    6.5571 C.ar    1  UNL1        0.0368
     11 C          10.3314   32.3115    7.7843 C.ar    1  UNL1       -0.0085
     12 C           9.3541   31.5003    8.6353 C.3     1  UNL1        0.0799
     13 C           8.1324   30.9089    7.8494 C.3     1  UNL1        0.0206
     14 C           6.7674   31.6095    8.0485 C.3     1  UNL1        0.0047
     15 C           5.2367   29.8211   10.1310 C.3     1  UNL1        0.0000
     16 C           6.4928   30.6345   10.4429 C.3     1  UNL1        0.0014
     17 O          13.3824   34.2919    5.6864 O.3     1  UNL1       -0.4684
     18 C          13.2308   35.7033    5.6150 C.3     1  UNL1        0.2526
     19 O          12.1900   31.8707    4.6067 O.3     1  UNL1       -0.4684
     20 C          13.3384   31.0319    4.7288 C.3     1  UNL1        0.2526
     21 C           6.6117   32.8341    7.0607 C.3     1  UNL1        0.0203
     22 C           5.3028   32.8718    6.2075 C.3     1  UNL1        0.0766
     23 N           5.5373   32.0249    5.0267 N.3     1  UNL1       -0.2948
     24 C           4.4227   32.0802    4.0964 C.3     1  UNL1        0.0735
     25 C           3.2502   31.3385    4.7038 C.3     1  UNL1        0.0433
     26 C           3.0381   31.7155    6.1506 C.ar    1  UNL1       -0.0203
     27 C           1.8519   31.2733    6.7413 C.ar    1  UNL1        0.0356
     28 C           1.5508   31.5523    8.0722 C.ar    1  UNL1        0.1721
     29 C           2.4693   32.3085    8.8213 C.ar    1  UNL1        0.1721
     30 C           3.6793   32.7434    8.2249 C.ar    1  UNL1        0.0368
     31 C           4.0047   32.4243    6.8960 C.ar    1  UNL1       -0.0087
     32 H           5.6698   31.0665    5.3496 H       1  UNL1        0.1235
     33 O           0.3919   31.1103    8.6522 O.3     1  UNL1       -0.4684
     34 C           0.4279   29.8727    9.3544 C.3     1  UNL1        0.2526
     35 O           2.3521   32.7027   10.1348 O.3     1  UNL1       -0.4684
     36 C           2.0933   34.0759   10.4015 C.3     1  UNL1        0.2526
@<TRIPOS>BOND
     1    15    16    1
     2    16     1    1
     3     1     2    1
     4     1    14    1
     5     2     3    1
     6     3     4    1
     7     3    12    1
     8     4     5    1
     9     5     6    1
    10     6     7   ar
    11     6    11   ar
    12     7     8   ar
    13     8    17    1
    14     8     9   ar
    15    17    18    1
    16     9    19    1
    17     9    10   ar
    18    19    20    1
    19    10    11   ar
    20    11    12    1
    21    12    13    1
    22    13    14    1
    23    14    21    1
    24    22    23    1
    25    22    31    1
    26    22    21    1
    27    23    24    1
    28    23    32    1
    29    24    25    1
    30    25    26    1
    31    26    27   ar
    32    26    31   ar
    33    27    28   ar
    34    28    33    1
    35    28    29   ar
    36    33    34    1
    37    29    35    1
    38    29    30   ar
    39    35    36    1
    40    30    31   ar
#	Name:			CHEMBL506247
#	Creating user name:	trannguyen
#	Creation time:		Tue Feb  8 18:26:14 2022


#	Modifying user name:	trannguyen
#	Modification time:	Tue Feb  8 18:26:14 2022

@<TRIPOS>MOLECULE
CHEMBL506247
 147 157 0 0 0
SMALL
GASTEIGER

@<TRIPOS>ATOM
      1 C           7.7819   34.1896    3.4253 C.3     1  UNL1        0.2060
      2 O           7.2986   34.1466    2.0813 O.3     1  UNL1       -0.3125
      3 C           8.3039   33.9519    1.1049 C.3     1  UNL1        0.3355
      4 C           9.2508   35.1512    1.0428 C.3     1  UNL1        0.2819
      5 C           9.5680   35.7736    2.4036 C.3     1  UNL1        0.2574
      6 C           9.0892   34.9943    3.6323 C.3     1  UNL1        0.2433
      7 O           9.0073   37.0995    2.5178 O.3     1  UNL1       -0.4413
      8 C           9.8161   38.0775    2.0416 C.2     1  UNL1        0.3415
      9 O          11.0238   38.0364    2.0031 O.2     1  UNL1       -0.2449
     10 C           9.0374   39.3013    1.7682 C.ar    1  UNL1        0.0819
     11 C           8.9779   40.3340    2.7106 C.ar    1  UNL1        0.0464
     12 C           8.5122   41.5780    2.3290 C.ar    1  UNL1        0.1708
     13 O           8.5670   42.6416    3.1886 O.3     1  UNL1       -0.5028
     14 C           8.0297   41.7765    1.0409 C.ar    1  UNL1        0.2028
     15 O           7.6656   43.0367    0.6664 O.3     1  UNL1       -0.5009
     16 C           7.9746   40.7130    0.1397 C.ar    1  UNL1        0.1854
     17 C           8.5299   39.4843    0.4822 C.ar    1  UNL1        0.0474
     18 H           8.9733   42.3280    4.0189 H       1  UNL1        0.2923
     19 H           7.9214   43.6031    1.4218 H       1  UNL1        0.2924
     20 O           7.4521   40.9594   -1.1395 O.3     1  UNL1       -0.4178
     21 C           8.2944   41.0245   -2.2297 C.2     1  UNL1        0.3460
     22 O           9.1942   41.8313   -2.4540 O.2     1  UNL1       -0.2445
     23 C           7.9639   39.9249   -3.1581 C.ar    1  UNL1        0.0823
     24 C           6.7666   39.9604   -3.8851 C.ar    1  UNL1        0.0464
     25 C           6.4042   38.8554   -4.6345 C.ar    1  UNL1        0.1708
     26 O           5.1975   38.8613   -5.2695 O.3     1  UNL1       -0.5028
     27 C           7.2340   37.7418   -4.6982 C.ar    1  UNL1        0.2019
     28 O           6.8238   36.6531   -5.4165 O.3     1  UNL1       -0.5009
     29 C           8.4492   37.7247   -4.0154 C.ar    1  UNL1        0.1708
     30 O           9.2427   36.6137   -4.1247 O.3     1  UNL1       -0.5028
     31 C           8.8169   38.8094   -3.2264 C.ar    1  UNL1        0.0464
     32 H           5.1009   37.9571   -5.6272 H       1  UNL1        0.2923
     33 H           7.5468   36.0035   -5.3023 H       1  UNL1        0.2924
     34 H          10.0716   36.7720   -3.6357 H       1  UNL1        0.2923
     35 O          10.1357   34.0664    4.0478 O.3     1  UNL1       -0.4426
     36 C          11.3422   34.6290    4.4331 C.2     1  UNL1        0.3415
     37 O          12.2052   35.0839    3.7459 O.2     1  UNL1       -0.2449
     38 C          11.4301   34.5227    5.8989 C.ar    1  UNL1        0.0819
     39 C          11.9394   35.5876    6.6387 C.ar    1  UNL1        0.0464
     40 C          12.0207   35.4730    8.0176 C.ar    1  UNL1        0.1708
     41 O          12.5584   36.3731    8.8826 O.3     1  UNL1       -0.5028
     42 C          11.5558   34.3583    8.6739 C.ar    1  UNL1        0.2028
     43 O          11.6493   34.3565   10.0340 O.3     1  UNL1       -0.5009
     44 C          11.0381   33.3112    7.9476 C.ar    1  UNL1        0.1854
     45 C          10.9910   33.3702    6.5509 C.ar    1  UNL1        0.0474
     46 H          12.5554   37.2359    8.4268 H       1  UNL1        0.2923
     47 H          12.0365   35.2295   10.2678 H       1  UNL1        0.2924
     48 O          10.7152   32.1768    8.6777 O.3     1  UNL1       -0.4178
     49 C           9.4873   31.6355    8.3841 C.2     1  UNL1        0.3460
     50 O           9.2610   30.6552    7.7112 O.2     1  UNL1       -0.2445
     51 C           8.5100   32.3722    9.2078 C.ar    1  UNL1        0.0823
     52 C           7.8312   33.4968    8.7002 C.ar    1  UNL1        0.0464
     53 C           6.9235   34.1543    9.5108 C.ar    1  UNL1        0.1708
     54 O           6.2229   35.2388    9.0725 O.3     1  UNL1       -0.5028
     55 C           6.7034   33.6975   10.8021 C.ar    1  UNL1        0.2019
     56 O           5.8008   34.2980   11.6312 O.3     1  UNL1       -0.5009
     57 C           7.3927   32.6014   11.3003 C.ar    1  UNL1        0.1708
     58 O           7.1237   32.1875   12.5696 O.3     1  UNL1       -0.5028
     59 C           8.3127   31.9326   10.5201 C.ar    1  UNL1        0.0464
     60 H           6.4758   35.4155    8.1481 H       1  UNL1        0.2923
     61 H           5.4227   35.0103   11.0870 H       1  UNL1        0.2924
     62 H           6.3910   32.7837   12.8414 H       1  UNL1        0.2923
     63 O          10.5344   34.7733    0.4748 O.3     1  UNL1       -0.4386
     64 C          10.9930   35.6911   -0.4219 C.2     1  UNL1        0.3416
     65 O          10.3026   36.4231   -1.0966 O.2     1  UNL1       -0.2449
     66 C          12.4634   35.8280   -0.2700 C.ar    1  UNL1        0.0819
     67 C          13.0544   36.9570   -0.8509 C.ar    1  UNL1        0.0464
     68 C          14.3982   37.2282   -0.6187 C.ar    1  UNL1        0.1708
     69 O          14.9805   38.3352   -1.1744 O.3     1  UNL1       -0.5028
     70 C          15.1640   36.3953    0.1987 C.ar    1  UNL1        0.2028
     71 O          16.4421   36.7982    0.4586 O.3     1  UNL1       -0.5009
     72 C          14.5761   35.2552    0.7593 C.ar    1  UNL1        0.1854
     73 C          13.2251   34.9630    0.5232 C.ar    1  UNL1        0.0474
     74 H          14.3378   38.7700   -1.7562 H       1  UNL1        0.2923
     75 H          17.0281   36.0140    0.4546 H       1  UNL1        0.2924
     76 O          15.1813   34.4172    1.7301 O.3     1  UNL1       -0.4178
     77 C          15.4838   34.7950    3.0213 C.2     1  UNL1        0.3460
     78 O          16.0181   35.8505    3.3729 O.2     1  UNL1       -0.2445
     79 C          15.0787   33.7331    3.9595 C.ar    1  UNL1        0.0823
     80 C          14.6462   32.4820    3.4962 C.ar    1  UNL1        0.0464
     81 C          14.2128   31.5375    4.4191 C.ar    1  UNL1        0.1708
     82 O          13.7379   30.3244    4.0018 O.3     1  UNL1       -0.5028
     83 C          14.2960   31.7798    5.7820 C.ar    1  UNL1        0.2019
     84 O          13.9538   30.8320    6.7045 O.3     1  UNL1       -0.5009
     85 C          14.7181   33.0221    6.2303 C.ar    1  UNL1        0.1708
     86 O          14.7644   33.2834    7.5668 O.3     1  UNL1       -0.5028
     87 C          15.0773   34.0144    5.3306 C.ar    1  UNL1        0.0464
     88 H          13.2017   30.4890    3.1968 H       1  UNL1        0.2923
     89 H          13.5413   30.0914    6.2206 H       1  UNL1        0.2924
     90 H          14.4672   32.4557    7.9958 H       1  UNL1        0.2923
     91 O           7.7557   33.6919   -0.2118 O.3     1  UNL1       -0.4175
     92 C           8.1483   32.5540   -0.8556 C.2     1  UNL1        0.3433
     93 O           7.8703   31.4151   -0.5426 O.2     1  UNL1       -0.2448
     94 C           8.8876   32.9008   -2.1108 C.ar    1  UNL1        0.0820
     95 C           8.1971   33.3678   -3.2392 C.ar    1  UNL1        0.0464
     96 C           8.8880   33.5643   -4.4278 C.ar    1  UNL1        0.1708
     97 O           8.2370   33.9786   -5.5615 O.3     1  UNL1       -0.5028
     98 C          10.2615   33.3082   -4.5143 C.ar    1  UNL1        0.2028
     99 O          10.8719   33.4588   -5.7311 O.3     1  UNL1       -0.5009
    100 C          10.9686   32.8703   -3.3916 C.ar    1  UNL1        0.1854
    101 C          10.2753   32.6467   -2.1904 C.ar    1  UNL1        0.0474
    102 H           7.3079   34.1611   -5.3327 H       1  UNL1        0.2923
    103 H          10.1451   33.7045   -6.3414 H       1  UNL1        0.2924
    104 O          12.3303   32.4770   -3.5430 O.3     1  UNL1       -0.4178
    105 C          13.3598   33.2799   -3.0563 C.2     1  UNL1        0.3460
    106 O          13.5690   34.4474   -3.3495 O.2     1  UNL1       -0.2445
    107 C          14.1306   32.5576   -1.9911 C.ar    1  UNL1        0.0823
    108 C          13.5082   31.7831   -0.9930 C.ar    1  UNL1        0.0464
    109 C          14.2899   31.2002    0.0124 C.ar    1  UNL1        0.1708
    110 O          13.7580   30.4011    0.9886 O.3     1  UNL1       -0.5028
    111 C          15.6660   31.3978    0.0463 C.ar    1  UNL1        0.2019
    112 O          16.4293   30.8705    1.0547 O.3     1  UNL1       -0.5009
    113 C          16.2851   32.1163   -0.9651 C.ar    1  UNL1        0.1708
    114 O          17.6423   32.2642   -0.9550 O.3     1  UNL1       -0.5028
    115 C          15.5341   32.6831   -1.9928 C.ar    1  UNL1        0.0464
    116 H          12.8871   30.0879    0.6878 H       1  UNL1        0.2923
    117 H          15.7842   30.4539    1.6625 H       1  UNL1        0.2924
    118 H          17.9471   31.7633   -0.1707 H       1  UNL1        0.2923
    119 C           6.6252   34.7543    4.2643 C.3     1  UNL1        0.2420
    120 O           6.5779   34.1562    5.5665 O.3     1  UNL1       -0.4426
    121 O           7.3976   32.0054    5.5249 O.2     1  UNL1       -0.2449
    122 C           6.4783   32.8064    5.6020 C.2     1  UNL1        0.3415
    123 C           5.0605   32.3964    5.6869 C.ar    1  UNL1        0.0819
    124 C           4.4387   31.8996    4.5375 C.ar    1  UNL1        0.0464
    125 C           3.1356   31.4279    4.6324 C.ar    1  UNL1        0.1708
    126 O           2.4825   30.9403    3.5298 O.3     1  UNL1       -0.5028
    127 C           2.4444   31.4498    5.8549 C.ar    1  UNL1        0.2028
    128 O           1.1767   30.9372    5.8840 O.3     1  UNL1       -0.5009
    129 C           3.0493   31.9876    6.9935 C.ar    1  UNL1        0.1854
    130 C           4.3565   32.4760    6.8949 C.ar    1  UNL1        0.0474
    131 H           3.0550   31.0545    2.7481 H       1  UNL1        0.2923
    132 H           1.0381   30.5817    4.9808 H       1  UNL1        0.2924
    133 O           2.3241   32.1633    8.2011 O.3     1  UNL1       -0.4178
    134 C           2.9673   31.7833    9.3719 C.2     1  UNL1        0.3460
    135 O           3.6286   32.5183   10.1046 O.2     1  UNL1       -0.2445
    136 C           2.7896   30.3360    9.7137 C.ar    1  UNL1        0.0823
    137 C           3.8599   29.4293    9.8048 C.ar    1  UNL1        0.0464
    138 C           3.6299   28.1453   10.3229 C.ar    1  UNL1        0.1708
    139 O           4.6467   27.2501   10.5360 O.3     1  UNL1       -0.5028
    140 C           2.3508   27.7445   10.7045 C.ar    1  UNL1        0.2019
    141 O           2.1306   26.5052   11.2547 O.3     1  UNL1       -0.5009
    142 C           1.2877   28.6241   10.5647 C.ar    1  UNL1        0.1708
    143 O           0.0357   28.2495   10.9562 O.3     1  UNL1       -0.5028
    144 C           1.4939   29.9085   10.0731 C.ar    1  UNL1        0.0464
    145 H           5.4932   27.7100   10.3982 H       1  UNL1        0.2923
    146 H           3.0191   26.0965   11.2937 H       1  UNL1        0.2924
    147 H           0.1598   27.3478   11.3118 H       1  UNL1        0.2923
@<TRIPOS>BOND
     1   121   122    2
     2   122   120    1
     3   122   123    1
     4   120   119    1
     5   119     1    1
     6     1     2    1
     7     1     6    1
     8     2     3    1
     9     3     4    1
    10     3    91    1
    11    91    92    1
    12    92    93    2
    13    92    94    1
    14    94    95   ar
    15    94   101   ar
    16    95    96   ar
    17    96    97    1
    18    96    98   ar
    19    97   102    1
    20    98    99    1
    21    98   100   ar
    22    99   103    1
    23   100   104    1
    24   100   101   ar
    25   104   105    1
    26   105   106    2
    27   105   107    1
    28   107   108   ar
    29   107   115   ar
    30   108   109   ar
    31   109   110    1
    32   109   111   ar
    33   110   116    1
    34   111   112    1
    35   111   113   ar
    36   112   117    1
    37   113   114    1
    38   113   115   ar
    39   114   118    1
    40     4    63    1
    41     4     5    1
    42    63    64    1
    43    64    65    2
    44    64    66    1
    45    66    67   ar
    46    66    73   ar
    47    67    68   ar
    48    68    69    1
    49    68    70   ar
    50    69    74    1
    51    70    71    1
    52    70    72   ar
    53    71    75    1
    54    72    76    1
    55    72    73   ar
    56    76    77    1
    57    77    78    2
    58    77    79    1
    59    79    80   ar
    60    79    87   ar
    61    80    81   ar
    62    81    82    1
    63    81    83   ar
    64    82    88    1
    65    83    84    1
    66    83    85   ar
    67    84    89    1
    68    85    86    1
    69    85    87   ar
    70    86    90    1
    71     5     6    1
    72     5     7    1
    73     7     8    1
    74     8     9    2
    75     8    10    1
    76    10    11   ar
    77    10    17   ar
    78    11    12   ar
    79    12    13    1
    80    12    14   ar
    81    13    18    1
    82    14    15    1
    83    14    16   ar
    84    15    19    1
    85    16    20    1
    86    16    17   ar
    87    20    21    1
    88    21    22    2
    89    21    23    1
    90    23    24   ar
    91    23    31   ar
    92    24    25   ar
    93    25    26    1
    94    25    27   ar
    95    26    32    1
    96    27    28    1
    97    27    29   ar
    98    28    33    1
    99    29    30    1
   100    29    31   ar
   101    30    34    1
   102     6    35    1
   103    35    36    1
   104    36    37    2
   105    36    38    1
   106    38    39   ar
   107    38    45   ar
   108    39    40   ar
   109    40    41    1
   110    40    42   ar
   111    41    46    1
   112    42    43    1
   113    42    44   ar
   114    43    47    1
   115    44    48    1
   116    44    45   ar
   117    48    49    1
   118    49    50    2
   119    49    51    1
   120    51    52   ar
   121    51    59   ar
   122    52    53   ar
   123    53    54    1
   124    53    55   ar
   125    54    60    1
   126    55    56    1
   127    55    57   ar
   128    56    61    1
   129    57    58    1
   130    57    59   ar
   131    58    62    1
   132   123   124   ar
   133   123   130   ar
   134   124   125   ar
   135   125   126    1
   136   125   127   ar
   137   126   131    1
   138   127   128    1
   139   127   129   ar
   140   128   132    1
   141   129   133    1
   142   129   130   ar
   143   133   134    1
   144   134   135    2
   145   134   136    1
   146   136   137   ar
   147   136   144   ar
   148   137   138   ar
   149   138   139    1
   150   138   140   ar
   151   139   145    1
   152   140   141    1
   153   140   142   ar
   154   141   146    1
   155   142   143    1
   156   142   144   ar
   157   143   147    1
#	Name:			CHEMBL506
#	Creating user name:	trannguyen
#	Creation time:		Tue Feb  8 18:26:14 2022


#	Modifying user name:	trannguyen
#	Modification time:	Tue Feb  8 18:26:14 2022

@<TRIPOS>MOLECULE
CHEMBL506
 22 23 0 0 0
SMALL
GASTEIGER

@<TRIPOS>ATOM
      1 C           1.8742   29.8378    9.3934 C.ar    1  UNL1        0.1401
      2 C           1.6142   30.7196    8.3536 C.ar    1  UNL1        0.0527
      3 C           2.5997   31.5878    7.8515 C.ar    1  UNL1        0.0655
      4 C           3.9209   31.4920    8.3574 C.ar    1  UNL1        0.0945
      5 N           4.9104   32.2925    7.8791 N.ar    1  UNL1       -0.2426
      6 C           6.1589   32.1441    8.3846 C.ar    1  UNL1        0.0989
      7 C           6.4971   31.2317    9.3640 C.ar    1  UNL1        0.0207
      8 C           5.4918   30.4224    9.8681 C.ar    1  UNL1        0.0032
      9 C           4.1842   30.5486    9.3755 C.ar    1  UNL1        0.0219
     10 C           3.1632   29.7353    9.8957 C.ar    1  UNL1        0.0385
     11 C           0.9859   28.3938   11.0285 C.3     1  UNL1        0.2525
     12 O           0.8051   29.0892    9.8018 O.3     1  UNL1       -0.4714
     13 N           2.3216   32.4526    6.7660 N.pl3   1  UNL1       -0.3328
     14 H           1.8380   33.2859    7.1181 H       1  UNL1        0.1468
     15 C           1.8204   31.9190    5.4963 C.3     1  UNL1        0.0692
     16 C           1.3257   33.0655    4.6095 C.3     1  UNL1        0.0212
     17 C           2.9131   31.0790    4.8055 C.3     1  UNL1        0.0209
     18 C           3.7473   31.8717    3.7784 C.3     1  UNL1        0.0185
     19 C           5.0811   32.3266    4.3822 C.3     1  UNL1        0.0652
     20 N           4.9266   33.5634    5.1428 N.3     1  UNL1       -0.3211
     21 H           4.6015   34.3060    4.5239 H       1  UNL1        0.1189
     22 H           5.8370   33.8639    5.4899 H       1  UNL1        0.1189
@<TRIPOS>BOND
     1    11    12    1
     2    12     1    1
     3     1     2   ar
     4     1    10   ar
     5     2     3   ar
     6     3    13    1
     7     3     4   ar
     8    13    15    1
     9    13    14    1
    10    15    16    1
    11    15    17    1
    12    17    18    1
    13    18    19    1
    14    19    20    1
    15    20    21    1
    16    20    22    1
    17     4     5   ar
    18     4     9   ar
    19     5     6   ar
    20     6     7   ar
    21     7     8   ar
    22     8     9   ar
    23     9    10   ar
#	Name:			CHEMBL508102
#	Creating user name:	trannguyen
#	Creation time:		Tue Feb  8 18:26:14 2022


#	Modifying user name:	trannguyen
#	Modification time:	Tue Feb  8 18:26:14 2022

@<TRIPOS>MOLECULE
CHEMBL508102
 12 12 0 0 0
SMALL
GASTEIGER

@<TRIPOS>ATOM
      1 C           3.1188   28.3160   10.2202 C.2     1  UNL1        0.4227
      2 O           3.5357   27.3196   10.8047 O.2     1  UNL1       -0.2226
      3 N           3.9088   29.4407    9.9445 N.ar    1  UNL1       -0.2212
      4 C           5.2537   29.4616   10.2959 C.ar    1  UNL1        0.1065
      5 C           5.8171   30.6112    9.9088 C.ar    1  UNL1        0.0969
      6 N           4.8662   31.4004    9.3078 N.ar    1  UNL1       -0.3036
      7 C           5.1451   32.6951    8.7244 C.3     1  UNL1        0.1325
      8 C           3.6170   30.7053    9.2857 C.ar    1  UNL1        0.1715
      9 S           2.1943   31.2671    8.6303 S.2     1  UNL1       -0.0121
     10 O           1.8471   28.4260    9.7506 O.3     1  UNL1       -0.4324
     11 C          -0.5145   28.8626   10.0787 C.3     1  UNL1        0.0513
     12 C           0.8051   28.4949   10.7322 C.3     1  UNL1        0.2105
@<TRIPOS>BOND
     1    11    12    1
     2    12    10    1
     3    10     1    1
     4     1     2    2
     5     1     3   am
     6     3     4   ar
     7     3     8   ar
     8     4     5   ar
     9     5     6   ar
    10     6     7    1
    11     6     8   ar
    12     8     9    2
#	Name:			CHEMBL508112
#	Creating user name:	trannguyen
#	Creation time:		Tue Feb  8 18:26:14 2022


#	Modifying user name:	trannguyen
#	Modification time:	Tue Feb  8 18:26:14 2022

@<TRIPOS>MOLECULE
CHEMBL508112
 20 23 0 0 0
SMALL
GASTEIGER

@<TRIPOS>ATOM
      1 S           5.6843   33.5591    9.5493 S.3     1  UNL1       -0.0230
      2 C           2.0314   28.4199   10.0536 C.ar    1  UNL1        0.0016
      3 C           3.1652   27.6136   10.0859 C.ar    1  UNL1        0.0006
      4 C           4.4460   28.1718   10.0207 C.ar    1  UNL1        0.0080
      5 C           4.5586   29.5693    9.9201 C.ar    1  UNL1        0.0490
      6 S           5.9711   30.5498    9.8162 S.2     1  UNL1       -0.0595
      7 C           4.9886   31.9523    9.7191 C.ar    1  UNL1        0.1465
      8 N           3.6931   31.7514    9.7951 N.ar    1  UNL1       -0.2312
      9 C           3.4340   30.3970    9.8902 C.ar    1  UNL1        0.0885
     10 C           2.1559   29.8095    9.9580 C.ar    1  UNL1        0.0196
     11 S           6.8220   33.2888    7.8456 S.3     1  UNL1       -0.0230
     12 C           5.5790   32.8571    6.6781 C.ar    1  UNL1        0.1465
     13 N           4.3448   33.3011    6.7547 N.ar    1  UNL1       -0.2312
     14 C           3.6160   32.8616    5.6683 C.ar    1  UNL1        0.0885
     15 C           2.2684   33.1771    5.4045 C.ar    1  UNL1        0.0196
     16 C           1.6520   32.6825    4.2535 C.ar    1  UNL1        0.0016
     17 C           2.3594   31.8737    3.3691 C.ar    1  UNL1        0.0006
     18 C           3.6944   31.5347    3.6144 C.ar    1  UNL1        0.0080
     19 C           4.3071   32.0449    4.7720 C.ar    1  UNL1        0.0490
     20 S           5.9180   31.8326    5.3433 S.2     1  UNL1       -0.0595
@<TRIPOS>BOND
     1     2     3   ar
     2     2    10   ar
     3     3     4   ar
     4     4     5   ar
     5     5     6   ar
     6     5     9   ar
     7     6     7   ar
     8     7     1    1
     9     7     8   ar
    10     1    11    1
    11    11    12    1
    12    12    13   ar
    13    12    20   ar
    14    13    14   ar
    15    14    15   ar
    16    14    19   ar
    17    15    16   ar
    18    16    17   ar
    19    17    18   ar
    20    18    19   ar
    21    19    20   ar
    22     8     9   ar
    23     9    10   ar
#	Name:			CHEMBL509
#	Creating user name:	trannguyen
#	Creation time:		Tue Feb  8 18:26:14 2022


#	Modifying user name:	trannguyen
#	Modification time:	Tue Feb  8 18:26:14 2022

@<TRIPOS>MOLECULE
CHEMBL509
 21 22 0 0 0
SMALL
GASTEIGER

@<TRIPOS>ATOM
      1 N           3.4174   31.6360    8.8227 N.pl3   1  UNL1       -0.3111
      2 H           3.5126   32.3005    9.6017 H       1  UNL1        0.1523
      3 C           4.1302   31.7986    3.8789 C.3     1  UNL1        0.0320
      4 C           4.5460   32.1865    5.2732 C.ar    1  UNL1       -0.0100
      5 C           5.8298   32.7064    5.4631 C.ar    1  UNL1       -0.0025
      6 C           6.3453   32.8479    6.7477 C.ar    1  UNL1        0.0124
      7 C           5.5917   32.4657    7.8653 C.ar    1  UNL1        0.0718
      8 CL          6.4720   32.3782    9.3551 Cl      1  UNL1       -0.0809
      9 C           4.2461   32.0620    7.7323 C.ar    1  UNL1        0.0694
     10 C           3.7504   31.9157    6.4068 C.ar    1  UNL1        0.0679
     11 CL          2.1129   31.3627    6.1895 Cl      1  UNL1       -0.0813
     12 C           3.2009   30.3320    9.3457 C.ar    1  UNL1        0.0546
     13 C           4.2737   29.5006    9.7074 C.ar    1  UNL1        0.0148
     14 C           4.0551   28.1897   10.1448 C.ar    1  UNL1        0.0013
     15 C           2.7594   27.7030   10.2829 C.ar    1  UNL1        0.0003
     16 C           1.6790   28.5433   10.0306 C.ar    1  UNL1        0.0077
     17 C           1.8891   29.8559    9.5760 C.ar    1  UNL1        0.0888
     18 C           0.6640   30.6757    9.3627 C.2     1  UNL1        0.3392
     19 O          -0.2685   30.3149    8.6683 O.2     1  UNL1       -0.2450
     20 O           0.7041   31.8827    9.9694 O.3     1  UNL1       -0.4771
     21 H           1.5260   32.0218   10.4897 H       1  UNL1        0.2954
@<TRIPOS>BOND
     1     3     4    1
     2     4     5   ar
     3     4    10   ar
     4     5     6   ar
     5     6     7   ar
     6     7     8    1
     7     7     9   ar
     8     9     1    1
     9     9    10   ar
    10     1    12    1
    11     1     2    1
    12    12    13   ar
    13    12    17   ar
    14    13    14   ar
    15    14    15   ar
    16    15    16   ar
    17    16    17   ar
    18    17    18    1
    19    18    19    2
    20    18    20    1
    21    20    21    1
    22    10    11    1
#	Name:			CHEMBL510139
#	Creating user name:	trannguyen
#	Creation time:		Tue Feb  8 18:26:14 2022


#	Modifying user name:	trannguyen
#	Modification time:	Tue Feb  8 18:26:14 2022

@<TRIPOS>MOLECULE
CHEMBL510139
 20 21 0 0 0
SMALL
GASTEIGER

@<TRIPOS>ATOM
      1 C           5.7652   30.6688    9.4362 C.3     1  UNL1        0.0341
      2 C           4.3053   30.3301    9.3574 C.2     1  UNL1        0.0137
      3 C           3.3392   31.0822    8.7919 C.2     1  UNL1       -0.0139
      4 C           1.9592   30.5929    8.7845 C.2     1  UNL1        0.0669
      5 C           1.0757   31.1581    7.9376 C.2     1  UNL1        0.1746
      6 O           1.3214   32.1547    7.0262 O.2     1  UNL1       -0.4757
      7 C           2.7075   32.4561    6.7935 C.3     1  UNL1        0.1700
      8 C           3.2394   31.5394    5.6882 C.3     1  UNL1        0.0476
      9 C           3.5541   32.4061    8.0825 C.3     1  UNL1        0.0623
     10 C           3.2132   33.5720    9.0201 C.3     1  UNL1        0.0084
     11 C           1.5754   29.5325    9.7150 C.2     1  UNL1        0.1456
     12 O           0.2241   29.3920    9.9975 O.2     1  UNL1       -0.5051
     13 C           2.5032   28.7475   10.2969 C.2     1  UNL1        0.1475
     14 C           3.9394   29.0055    9.9715 C.2     1  UNL1        0.2005
     15 O           4.8184   28.1742   10.1747 O.2     1  UNL1       -0.2866
     16 H          -0.1982   30.2703    9.9177 H       1  UNL1        0.2922
     17 C           2.1533   27.6870   11.2762 C.2     1  UNL1        0.3442
     18 O           1.8186   27.9103   12.4288 O.2     1  UNL1       -0.2449
     19 O           2.2116   26.4202   10.8007 O.3     1  UNL1       -0.4770
     20 H           2.3640   26.3838    9.8316 H       1  UNL1        0.2954
@<TRIPOS>BOND
     1     1     2    1
     2     2     3    2
     3     2    14    1
     4     3     4    1
     5     3     9    1
     6     4     5    2
     7     4    11    1
     8     5     6    1
     9     6     7    1
    10     7     9    1
    11     7     8    1
    12     9    10    1
    13    11    12    1
    14    11    13    2
    15    12    16    1
    16    13    17    1
    17    13    14    1
    18    17    18    2
    19    17    19    1
    20    19    20    1
    21    14    15    2
#	Name:			CHEMBL511
#	Creating user name:	trannguyen
#	Creation time:		Tue Feb  8 18:26:14 2022


#	Modifying user name:	trannguyen
#	Modification time:	Tue Feb  8 18:26:14 2022

@<TRIPOS>MOLECULE
CHEMBL511
 21 22 0 0 0
SMALL
GASTEIGER

@<TRIPOS>ATOM
      1 N           2.4475   31.6808    9.1609 N.pl3   1  UNL1       -0.2877
      2 C           2.6000   30.3696    9.6130 C.ar    1  UNL1        0.1320
      3 C           3.8608   29.7517    9.6674 C.ar    1  UNL1        0.0343
      4 C           3.9920   28.4344   10.1114 C.ar    1  UNL1        0.0045
      5 C           2.8679   27.7249   10.4739 C.ar    1  UNL1        0.0208
      6 C           1.6523   28.3821   10.3982 C.ar    1  UNL1        0.1003
      7 N           1.5129   29.6675    9.9961 N.ar    1  UNL1       -0.2292
      8 C           1.7652   31.8669    7.8698 C.3     1  UNL1        0.1189
      9 C           4.3928   31.7545    4.4027 C.ar    1  UNL1        0.1387
     10 C           4.8131   32.3491    5.5917 C.ar    1  UNL1        0.0366
     11 C           3.9781   32.3534    6.7179 C.ar    1  UNL1        0.0005
     12 C           2.7000   31.7788    6.6732 C.ar    1  UNL1       -0.0022
     13 C           2.2954   31.1686    5.4763 C.ar    1  UNL1        0.0005
     14 C           3.1385   31.1462    4.3575 C.ar    1  UNL1        0.0366
     15 C           6.3402   32.4326    3.2412 C.3     1  UNL1        0.2525
     16 O           5.1388   31.6679    3.2580 O.3     1  UNL1       -0.4714
     17 C           2.3391   32.7827   10.1388 C.3     1  UNL1        0.1098
     18 C           0.9271   33.4299   10.1559 C.3     1  UNL1        0.0939
     19 N           0.8237   34.7749   10.7712 N.3     1  UNL1       -0.2688
     20 C           1.8743   35.6415   10.2216 C.3     1  UNL1        0.0897
     21 C          -0.4869   35.3909   10.5452 C.3     1  UNL1        0.0897
@<TRIPOS>BOND
     1    15    16    1
     2    16     9    1
     3     9    10   ar
     4     9    14   ar
     5    10    11   ar
     6    11    12   ar
     7    12     8    1
     8    12    13   ar
     9     8     1    1
    10     1    17    1
    11     1     2    1
    12    17    18    1
    13    18    19    1
    14    19    20    1
    15    19    21    1
    16     2     3   ar
    17     2     7   ar
    18     3     4   ar
    19     4     5   ar
    20     5     6   ar
    21     6     7   ar
    22    13    14   ar
#	Name:			CHEMBL513
#	Creating user name:	trannguyen
#	Creation time:		Tue Feb  8 18:26:14 2022


#	Modifying user name:	trannguyen
#	Modification time:	Tue Feb  8 18:26:14 2022

@<TRIPOS>MOLECULE
CHEMBL513
 13 12 0 0 0
SMALL
GASTEIGER

@<TRIPOS>ATOM
      1 N           2.1623   31.1035    8.3038 N.am    1  UNL1       -0.1286
      2 C           2.6638   31.8499    7.2308 C.2     1  UNL1        0.3254
      3 O           3.8389   32.1778    7.1406 O.2     1  UNL1       -0.2507
      4 N           1.7434   32.1970    6.2597 N.am    1  UNL1       -0.2861
      5 H           0.7627   32.0136    6.4170 H       1  UNL1        0.1511
      6 O           0.0375   31.5699    8.6956 O.2     1  UNL1       -0.1256
      7 N           0.8208   30.7008    8.3049 N.2     1  UNL1        0.0534
      8 C           3.0761   30.6301    9.3509 C.3     1  UNL1        0.1414
      9 C           2.6496   29.2863    9.9377 C.3     1  UNL1        0.1186
     10 CL          4.0368   28.1659   10.0054 Cl      1  UNL1       -0.1118
     11 C           2.0999   32.9202    5.0496 C.3     1  UNL1        0.1085
     12 C           2.1129   32.0514    3.7921 C.3     1  UNL1        0.1161
     13 CL          3.4399   30.8588    3.8302 Cl      1  UNL1       -0.1118
@<TRIPOS>BOND
     1     6     7    2
     2     7     1    1
     3     1     8    1
     4     1     2   am
     5     8     9    1
     6     9    10    1
     7     2     3    2
     8     2     4   am
     9     4    11    1
    10     4     5    1
    11    11    12    1
    12    12    13    1
#	Name:			CHEMBL514
#	Creating user name:	trannguyen
#	Creation time:		Tue Feb  8 18:26:14 2022


#	Modifying user name:	trannguyen
#	Modification time:	Tue Feb  8 18:26:14 2022

@<TRIPOS>MOLECULE
CHEMBL514
 16 16 0 0 0
SMALL
GASTEIGER

@<TRIPOS>ATOM
      1 N           2.0036   30.7276    8.9977 N.am    1  UNL1       -0.1286
      2 C           2.9959   31.4072    8.2800 C.2     1  UNL1        0.3253
      3 O           4.1173   31.6083    8.7296 O.2     1  UNL1       -0.2507
      4 N           2.6389   31.8028    7.0026 N.am    1  UNL1       -0.2890
      5 H           1.6591   31.8134    6.7644 H       1  UNL1        0.1510
      6 C           3.5554   32.4906    6.0985 C.3     1  UNL1        0.0731
      7 C           4.0659   31.5173    5.0211 C.3     1  UNL1        0.0196
      8 C           2.9971   31.1604    3.9869 C.3     1  UNL1        0.0017
      9 C           2.3656   32.4046    3.3715 C.3     1  UNL1        0.0001
     10 C           1.8369   33.3622    4.4354 C.3     1  UNL1        0.0017
     11 C           2.9104   33.7228    5.4622 C.3     1  UNL1        0.0196
     12 O          -0.0299   31.5246    8.6579 O.2     1  UNL1       -0.1256
     13 N           0.7246   30.5721    8.4474 N.2     1  UNL1        0.0534
     14 C           2.3463   30.0658   10.2606 C.3     1  UNL1        0.1414
     15 C           2.6057   28.5714   10.1216 C.3     1  UNL1        0.1186
     16 CL          4.3555   28.2640    9.9374 Cl      1  UNL1       -0.1118
@<TRIPOS>BOND
     1    12    13    2
     2    13     1    1
     3     1    14    1
     4     1     2   am
     5    14    15    1
     6    15    16    1
     7     2     3    2
     8     2     4   am
     9     4     6    1
    10     4     5    1
    11     6     7    1
    12     6    11    1
    13     7     8    1
    14     8     9    1
    15     9    10    1
    16    10    11    1
#	Name:			CHEMBL515914
#	Creating user name:	trannguyen
#	Creation time:		Tue Feb  8 18:26:14 2022


#	Modifying user name:	trannguyen
#	Modification time:	Tue Feb  8 18:26:14 2022

@<TRIPOS>MOLECULE
CHEMBL515914
 27 28 0 0 0
SMALL
GASTEIGER

@<TRIPOS>ATOM
      1 C           2.3223   32.1078    6.7516 C.3     1  UNL1        0.2045
      2 O           1.3444   31.4947    7.6119 O.3     1  UNL1       -0.3263
      3 C           1.7438   31.6984    8.9879 C.3     1  UNL1        0.2702
      4 C           3.0540   32.5126    8.9696 C.3     1  UNL1        0.2615
      5 C           3.6046   32.2138    7.5738 C.3     1  UNL1        0.2436
      6 N           1.8644   30.3799    9.6238 N.ar    1  UNL1       -0.1725
      7 N           3.0998   30.0444   10.1404 N.ar    1  UNL1       -0.1568
      8 C           3.2155   28.8911   10.7278 C.ar    1  UNL1        0.1808
      9 C           2.0888   27.9150   10.8317 C.ar    1  UNL1        0.2821
     10 O           2.2578   26.8480   11.4105 O.2     1  UNL1       -0.2653
     11 N           0.9369   28.3208   10.2480 N.ar    1  UNL1       -0.2719
     12 H           0.1327   27.7071   10.2855 H       1  UNL1        0.1735
     13 C           0.7521   29.5436    9.6474 C.ar    1  UNL1        0.3484
     14 O          -0.3502   29.8279    9.1948 O.2     1  UNL1       -0.2449
     15 C           2.4525   31.2650    5.4778 C.3     1  UNL1        0.2416
     16 O           1.9147   31.9112    4.3131 O.3     1  UNL1       -0.4457
     17 C           3.7931   33.0963    3.5449 C.3     1  UNL1        0.1212
     18 C           2.3843   33.1637    4.0602 C.2     1  UNL1        0.3176
     19 O           1.7596   34.1995    4.2232 O.2     1  UNL1       -0.2501
     20 O           2.7875   33.9322    9.0894 O.3     1  UNL1       -0.4436
     21 C           2.6383   34.4015   10.3535 C.2     1  UNL1        0.3177
     22 C           1.2978   35.0527   10.5076 C.3     1  UNL1        0.1212
     23 O           3.4970   34.3584   11.2328 O.2     1  UNL1       -0.2501
     24 O           4.4581   33.2649    7.0791 O.3     1  UNL1       -0.4456
     25 C           5.7935   33.1300    7.2943 C.2     1  UNL1        0.3176
     26 C           6.4129   32.2250    6.2669 C.3     1  UNL1        0.1212
     27 O           6.4261   33.6741    8.1888 O.2     1  UNL1       -0.2501
@<TRIPOS>BOND
     1    17    18    1
     2    18    19    2
     3    18    16    1
     4    16    15    1
     5    15     1    1
     6     1     2    1
     7     1     5    1
     8     2     3    1
     9     3     4    1
    10     3     6    1
    11     6     7   ar
    12     6    13   ar
    13     7     8   ar
    14     8     9   ar
    15     9    10    2
    16     9    11   ar
    17    11    12    1
    18    11    13   ar
    19    13    14    2
    20     4    20    1
    21     4     5    1
    22    20    21    1
    23    21    22    1
    24    21    23    2
    25     5    24    1
    26    24    25    1
    27    25    26    1
    28    25    27    2
#	Name:			CHEMBL515
#	Creating user name:	trannguyen
#	Creation time:		Tue Feb  8 18:26:14 2022


#	Modifying user name:	trannguyen
#	Modification time:	Tue Feb  8 18:26:14 2022

@<TRIPOS>MOLECULE
CHEMBL515
 20 20 0 0 0
SMALL
GASTEIGER

@<TRIPOS>ATOM
      1 C           3.6537   30.6024    9.1560 C.ar    1  UNL1       -0.0221
      2 C           4.1357   31.7297    8.5188 C.ar    1  UNL1       -0.0030
      3 C           5.4462   32.1499    8.7391 C.ar    1  UNL1        0.0142
      4 C           6.3581   31.4883    9.5344 C.ar    1  UNL1        0.0479
      5 C           5.8793   30.2797    9.9962 C.ar    1  UNL1        0.0142
      6 C           4.5369   29.9010    9.9554 C.ar    1  UNL1       -0.0030
      7 C           2.2492   30.1641    8.8910 C.3     1  UNL1        0.0269
      8 C           1.3885   30.0679   10.1610 C.3     1  UNL1        0.0163
      9 C           0.8621   28.6682   10.4133 C.3     1  UNL1        0.1097
     10 O           2.0866   28.0331   12.3957 O.2     1  UNL1       -0.2503
     11 C           1.7688   27.7619   11.2032 C.2     1  UNL1        0.3138
     12 O           2.2265   26.6453   10.6349 O.3     1  UNL1       -0.4802
     13 H           1.8835   26.4461    9.7436 H       1  UNL1        0.2951
     14 N           7.6318   31.9376    9.8190 N.pl3   1  UNL1       -0.3049
     15 C           7.9245   32.8332   11.0020 C.3     1  UNL1        0.1083
     16 C           7.4854   34.3288   10.9245 C.3     1  UNL1        0.1162
     17 CL          5.7503   34.7349   11.1923 Cl      1  UNL1       -0.1118
     18 C           8.8096   31.3343    9.0845 C.3     1  UNL1        0.1083
     19 C           8.6944   30.8537    7.5876 C.3     1  UNL1        0.1162
     20 CL          8.0034   31.7831    6.2114 Cl      1  UNL1       -0.1118
@<TRIPOS>BOND
     1    10    11    2
     2    11    12    1
     3    11     9    1
     4    12    13    1
     5     9     8    1
     6     8     7    1
     7     7     1    1
     8     1     2   ar
     9     1     6   ar
    10     2     3   ar
    11     3     4   ar
    12     4    14    1
    13     4     5   ar
    14    14    15    1
    15    14    18    1
    16    15    16    1
    17    16    17    1
    18    18    19    1
    19    19    20    1
    20     5     6   ar
#	Name:			CHEMBL516
#	Creating user name:	trannguyen
#	Creation time:		Tue Feb  8 18:26:14 2022


#	Modifying user name:	trannguyen
#	Modification time:	Tue Feb  8 18:26:14 2022

@<TRIPOS>MOLECULE
CHEMBL516
 22 25 0 0 0
SMALL
GASTEIGER

@<TRIPOS>ATOM
      1 C           2.4344   32.9943    3.7644 C.3     1  UNL1        0.0897
      2 N           3.4913   32.1551    4.3228 N.3     1  UNL1       -0.2709
      3 C           4.4094   32.9187    5.1841 C.3     1  UNL1        0.0765
      4 C           3.8249   33.3422    6.5439 C.3     1  UNL1        0.0394
      5 C           3.2397   32.1614    7.3101 C.2     1  UNL1       -0.0414
      6 C           3.5508   31.8461    8.5967 C.2     1  UNL1       -0.0078
      7 C           4.5500   32.6354    9.3621 C.ar    1  UNL1       -0.0006
      8 C           4.2520   33.9490    9.7609 C.ar    1  UNL1       -0.0000
      9 C           5.1767   34.6927   10.4928 C.ar    1  UNL1       -0.0000
     10 C           6.4007   34.1277   10.8405 C.ar    1  UNL1       -0.0000
     11 C           6.6959   32.8134   10.4703 C.ar    1  UNL1       -0.0000
     12 C           5.7697   32.0444    9.7489 C.ar    1  UNL1       -0.0000
     13 C           6.1412   30.6592    9.3994 C.2     1  UNL1       -0.0000
     14 C           5.3221   29.5937    9.3422 C.2     1  UNL1       -0.0000
     15 C           3.8715   29.5757    9.6142 C.ar    1  UNL1       -0.0000
     16 C           3.3310   28.4396   10.2363 C.ar    1  UNL1       -0.0000
     17 C           1.9666   28.3635   10.5270 C.ar    1  UNL1       -0.0000
     18 C           1.1225   29.4199   10.1958 C.ar    1  UNL1       -0.0000
     19 C           1.6396   30.5491    9.5620 C.ar    1  UNL1       -0.0000
     20 C           3.0062   30.6256    9.2458 C.ar    1  UNL1       -0.0006
     21 C           2.3070   31.3465    6.4216 C.3     1  UNL1        0.0394
     22 C           2.9519   31.0038    5.0655 C.3     1  UNL1        0.0765
@<TRIPOS>BOND
     1     1     2    1
     2     2     3    1
     3     2    22    1
     4     3     4    1
     5     4     5    1
     6     5     6    2
     7     5    21    1
     8     6     7    1
     9     6    20    1
    10     7     8   ar
    11     7    12   ar
    12     8     9   ar
    13     9    10   ar
    14    10    11   ar
    15    11    12   ar
    16    12    13    1
    17    13    14    2
    18    14    15    1
    19    15    16   ar
    20    15    20   ar
    21    16    17   ar
    22    17    18   ar
    23    18    19   ar
    24    19    20   ar
    25    21    22    1
#	Name:			CHEMBL517712
#	Creating user name:	trannguyen
#	Creation time:		Tue Feb  8 18:26:14 2022


#	Modifying user name:	trannguyen
#	Modification time:	Tue Feb  8 18:26:14 2022

@<TRIPOS>MOLECULE
CHEMBL517712
 22 24 0 0 0
SMALL
GASTEIGER

@<TRIPOS>ATOM
      1 C           2.7305   32.4134    9.1220 C.2     1  UNL1        0.3230
      2 O           3.5848   33.0394    9.7296 O.2     1  UNL1       -0.2497
      3 O           2.4554   32.5718    7.7863 O.3     1  UNL1       -0.4519
      4 C           4.6992   31.2535    3.7917 C.3     1  UNL1        0.0896
      5 N           3.6564   32.2507    3.9638 N.3     1  UNL1       -0.2738
      6 C           3.9717   33.3715    4.8537 C.3     1  UNL1        0.0611
      7 C           2.6431   34.1336    4.8315 C.3     1  UNL1        0.0175
      8 C           1.5903   33.0557    4.5720 C.3     1  UNL1        0.0175
      9 C           2.3840   31.7495    4.4857 C.3     1  UNL1        0.0611
     10 C           2.5446   31.0712    5.8546 C.3     1  UNL1        0.0596
     11 C           3.3522   31.8850    6.8812 C.3     1  UNL1        0.1715
     12 C           4.3282   32.9147    6.2772 C.3     1  UNL1        0.0596
     13 C           1.8790   31.3215    9.7578 C.3     1  UNL1        0.1504
     14 C           2.6331   30.0039    9.8734 C.ar    1  UNL1       -0.0095
     15 C           1.9516   28.7925   10.0576 C.ar    1  UNL1       -0.0037
     16 C           2.6478   27.5866   10.1496 C.ar    1  UNL1       -0.0003
     17 C           4.0380   27.5752   10.0783 C.ar    1  UNL1       -0.0000
     18 C           4.7328   28.7710    9.9131 C.ar    1  UNL1       -0.0003
     19 C           4.0363   29.9782    9.8072 C.ar    1  UNL1       -0.0037
     20 C           0.5344   31.1861    9.0300 C.3     1  UNL1        0.1526
     21 O          -0.0100   32.4595    8.6885 O.3     1  UNL1       -0.3811
     22 H          -0.1346   32.9530    9.5203 H       1  UNL1        0.2105
@<TRIPOS>BOND
     1     4     5    1
     2     5     6    1
     3     5     9    1
     4     6     7    1
     5     6    12    1
     6     7     8    1
     7     8     9    1
     8     9    10    1
     9    10    11    1
    10    11    12    1
    11    11     3    1
    12     3     1    1
    13     1     2    2
    14     1    13    1
    15    13    20    1
    16    13    14    1
    17    20    21    1
    18    21    22    1
    19    14    15   ar
    20    14    19   ar
    21    15    16   ar
    22    16    17   ar
    23    17    18   ar
    24    18    19   ar
#	Name:			CHEMBL521589
#	Creating user name:	trannguyen
#	Creation time:		Tue Feb  8 18:26:14 2022


#	Modifying user name:	trannguyen
#	Modification time:	Tue Feb  8 18:26:14 2022

@<TRIPOS>MOLECULE
CHEMBL521589
 28 28 0 0 0
SMALL
GASTEIGER

@<TRIPOS>ATOM
      1 C           4.6699   32.6723    6.7365 C.ar    1  UNL1        0.1529
      2 C           5.8829   32.1698    7.2141 C.ar    1  UNL1        0.0752
      3 C           6.0791   32.1368    8.5973 C.ar    1  UNL1        0.1529
      4 C           5.0671   32.5582    9.4774 C.ar    1  UNL1        0.0360
      5 C           3.8658   33.0846    8.9894 C.ar    1  UNL1        0.0117
      6 C           3.7097   33.1775    7.6065 C.ar    1  UNL1        0.0360
      7 C           2.7281   33.5369    9.8972 C.3     1  UNL1        0.1486
      8 O           2.2134   34.7837    9.4065 O.3     1  UNL1       -0.3786
      9 H           2.9100   35.1936    8.8641 H       1  UNL1        0.2108
     10 C           1.5691   32.4819    9.9607 C.3     1  UNL1        0.1027
     11 N           1.8618   31.2568   10.7481 N.3     1  UNL1       -0.2973
     12 H           1.1503   31.1942   11.4820 H       1  UNL1        0.1233
     13 C           1.8983   29.9928    9.9666 C.3     1  UNL1        0.0421
     14 C           1.4612   30.2368    8.5108 C.3     1  UNL1        0.0158
     15 C           3.3547   29.4732    9.9250 C.3     1  UNL1        0.0158
     16 C           1.0253   28.8754   10.5686 C.3     1  UNL1        0.0158
     17 O           4.4592   32.6490    5.3431 O.3     1  UNL1       -0.4100
     18 C           6.6818   33.2388    2.4870 C.3     1  UNL1        0.1184
     19 N           5.8167   32.6156    3.4748 N.am    1  UNL1       -0.2422
     20 C           5.8748   31.1705    3.5964 C.3     1  UNL1        0.1184
     21 C           5.2549   33.4037    4.4583 C.2     1  UNL1        0.4095
     22 O           5.4318   34.6060    4.5151 O.2     1  UNL1       -0.2258
     23 O           7.2588   31.5256    9.0859 O.3     1  UNL1       -0.4100
     24 C           8.4013   32.3001    9.3347 C.2     1  UNL1        0.4095
     25 O           8.4386   33.2216   10.1484 O.2     1  UNL1       -0.2258
     26 N           9.5088   31.8979    8.5934 N.am    1  UNL1       -0.2422
     27 C           9.5345   30.6152    7.9152 C.3     1  UNL1        0.1184
     28 C          10.7935   32.5058    8.8997 C.3     1  UNL1        0.1184
@<TRIPOS>BOND
     1    18    19    1
     2    19    20    1
     3    19    21   am
     4    21    22    2
     5    21    17    1
     6    17     1    1
     7     1     2   ar
     8     1     6   ar
     9     2     3   ar
    10     3    23    1
    11     3     4   ar
    12    23    24    1
    13    24    25    2
    14    24    26   am
    15    26    27    1
    16    26    28    1
    17     4     5   ar
    18     5     7    1
    19     5     6   ar
    20     7     8    1
    21     7    10    1
    22     8     9    1
    23    10    11    1
    24    11    13    1
    25    11    12    1
    26    13    14    1
    27    13    15    1
    28    13    16    1
#	Name:			CHEMBL521
#	Creating user name:	trannguyen
#	Creation time:		Tue Feb  8 18:26:14 2022


#	Modifying user name:	trannguyen
#	Modification time:	Tue Feb  8 18:26:14 2022

@<TRIPOS>MOLECULE
CHEMBL521
 16 16 0 0 0
SMALL
GASTEIGER

@<TRIPOS>ATOM
      1 C           3.0130   31.5798    7.5959 C.ar    1  UNL1       -0.0222
      2 C           3.8891   31.2159    8.6253 C.ar    1  UNL1       -0.0046
      3 C           3.4873   30.3229    9.6289 C.ar    1  UNL1       -0.0041
      4 C           2.2002   29.7653    9.6212 C.ar    1  UNL1       -0.0120
      5 C           1.3173   30.1486    8.6004 C.ar    1  UNL1       -0.0041
      6 C           1.7163   31.0505    7.6078 C.ar    1  UNL1       -0.0046
      7 C           1.7298   28.8045   10.7084 C.3     1  UNL1        0.1211
      8 C           0.2231   28.5349   10.6190 C.3     1  UNL1        0.0164
      9 C           2.4971   27.4829   10.7515 C.2     1  UNL1        0.3174
     10 O           3.3466   27.1589    9.9252 O.2     1  UNL1       -0.2499
     11 O           2.1174   26.6262   11.7255 O.3     1  UNL1       -0.4800
     12 H           1.4397   26.9846   12.3338 H       1  UNL1        0.2951
     13 C           3.4531   32.5123    6.4853 C.3     1  UNL1        0.0263
     14 C           2.2068   33.4150    4.4354 C.3     1  UNL1        0.0003
     15 C           2.8606   32.1964    5.0919 C.3     1  UNL1        0.0044
     16 C           3.9534   31.6589    4.1578 C.3     1  UNL1        0.0003
@<TRIPOS>BOND
     1    14    15    1
     2    15    16    1
     3    15    13    1
     4    13     1    1
     5     1     2   ar
     6     1     6   ar
     7     2     3   ar
     8     3     4   ar
     9     4     7    1
    10     4     5   ar
    11     7     8    1
    12     7     9    1
    13     9    10    2
    14     9    11    1
    15    11    12    1
    16     5     6   ar
#	Name:			CHEMBL52440
#	Creating user name:	trannguyen
#	Creation time:		Tue Feb  8 18:26:14 2022


#	Modifying user name:	trannguyen
#	Modification time:	Tue Feb  8 18:26:14 2022

@<TRIPOS>MOLECULE
CHEMBL52440
 20 23 0 0 0
SMALL
GASTEIGER

@<TRIPOS>ATOM
      1 C           4.1125   32.0868    4.8586 C.ar    1  UNL1        0.1384
      2 C           2.8199   31.6233    4.6295 C.ar    1  UNL1        0.0366
      3 C           1.9904   31.2874    5.6976 C.ar    1  UNL1       -0.0014
      4 C           2.4444   31.4046    7.0195 C.ar    1  UNL1       -0.0246
      5 C           3.7646   31.8305    7.2728 C.ar    1  UNL1       -0.0236
      6 C           4.5743   32.1954    6.1724 C.ar    1  UNL1        0.0323
      7 C           4.3115   31.9502    8.7199 C.3     1  UNL1        0.0213
      8 C           5.7739   31.4005    8.7692 C.3     1  UNL1        0.0041
      9 C           6.0848   30.6139   10.0411 C.3     1  UNL1        0.0003
     10 C           5.1516   29.4095   10.2002 C.3     1  UNL1        0.0001
     11 C           3.7170   29.6824    9.7305 C.3     1  UNL1        0.0017
     12 C           3.4267   31.1873    9.7416 C.3     1  UNL1        0.0188
     13 C           1.9627   31.5939    9.5025 C.3     1  UNL1        0.0621
     14 C           1.4912   31.0581    8.1401 C.3     1  UNL1        0.0420
     15 N           1.7878   33.0714    9.5082 N.3     1  UNL1       -0.2724
     16 C           0.6033   33.4788   10.2573 C.3     1  UNL1        0.0896
     17 C           2.9738   33.8215    9.9236 C.3     1  UNL1        0.0724
     18 C           4.2473   33.4517    9.1313 C.3     1  UNL1        0.0214
     19 C           6.0459   31.7145    3.5257 C.3     1  UNL1        0.2525
     20 O           4.8164   32.3985    3.7275 O.3     1  UNL1       -0.4714
@<TRIPOS>BOND
     1    19    20    1
     2    20     1    1
     3     1     2   ar
     4     1     6   ar
     5     2     3   ar
     6     3     4   ar
     7     4     5   ar
     8     4    14    1
     9     5     6   ar
    10     7     5    1
    11     7     8    1
    12     7    12    1
    13     7    18    1
    14     8     9    1
    15     9    10    1
    16    10    11    1
    17    11    12    1
    18    12    13    1
    19    13    14    1
    20    13    15    1
    21    15    17    1
    22    15    16    1
    23    17    18    1
#	Name:			CHEMBL526
#	Creating user name:	trannguyen
#	Creation time:		Tue Feb  8 18:26:14 2022


#	Modifying user name:	trannguyen
#	Modification time:	Tue Feb  8 18:26:14 2022

@<TRIPOS>MOLECULE
CHEMBL526
 14 14 0 0 0
SMALL
GASTEIGER

@<TRIPOS>ATOM
      1 C           2.8534   32.1661    6.0510 C.ar    1  UNL1        0.0109
      2 C           4.0781   32.8298    6.2322 C.ar    1  UNL1       -0.0013
      3 C           4.8298   32.6334    7.3882 C.ar    1  UNL1       -0.0004
      4 C           4.3798   31.7636    8.3798 C.ar    1  UNL1       -0.0013
      5 C           3.1593   31.0783    8.2420 C.ar    1  UNL1        0.0109
      6 C           2.4064   31.3148    7.0768 C.ar    1  UNL1        0.1256
      7 O           1.1865   30.7129    6.9115 O.3     1  UNL1       -0.5061
      8 H           0.6953   30.8477    7.7387 H       1  UNL1        0.2922
      9 C           1.9525   33.8293    4.3622 C.3     1  UNL1        0.0048
     10 C           2.0510   32.3571    4.7714 C.3     1  UNL1        0.0253
     11 C           2.6261   31.5130    3.6299 C.3     1  UNL1        0.0048
     12 C           2.7158   30.0908    9.3131 C.3     1  UNL1        0.0253
     13 C           3.9032   29.3323    9.9167 C.3     1  UNL1        0.0048
     14 C           1.8964   30.7758   10.4102 C.3     1  UNL1        0.0048
@<TRIPOS>BOND
     1     9    10    1
     2    10    11    1
     3    10     1    1
     4     1     2   ar
     5     1     6   ar
     6     2     3   ar
     7     3     4   ar
     8     4     5   ar
     9     5    12    1
    10     5     6   ar
    11    12    13    1
    12    12    14    1
    13     6     7    1
    14     7     8    1
#	Name:			CHEMBL527
#	Creating user name:	trannguyen
#	Creation time:		Tue Feb  8 18:26:14 2022


#	Modifying user name:	trannguyen
#	Modification time:	Tue Feb  8 18:26:14 2022

@<TRIPOS>MOLECULE
CHEMBL527
 25 27 0 0 0
SMALL
GASTEIGER

@<TRIPOS>ATOM
      1 C           2.2186   33.2878   10.0393 C.3     1  UNL1        0.1394
      2 N           2.4787   32.5578    8.7715 N.pl3   1  UNL1       -0.1814
      3 C           3.8153   31.9882    8.6601 C.2     1  UNL1        0.1558
      4 C           4.0317   30.7424    9.1354 C.2     1  UNL1        0.1541
      5 O           5.2678   30.1344    9.0386 O.2     1  UNL1       -0.5040
      6 C           2.9692   29.9117    9.7510 C.ar    1  UNL1        0.0540
      7 C           3.2598   28.9139   10.6921 C.ar    1  UNL1        0.0044
      8 C           2.2371   28.1336   11.2449 C.ar    1  UNL1        0.0002
      9 C           0.9085   28.3423   10.8727 C.ar    1  UNL1        0.0014
     10 C           0.5947   29.3397    9.9541 C.ar    1  UNL1        0.0203
     11 C           1.6281   30.1024    9.4048 C.ar    1  UNL1        0.1283
     12 S           1.2691   31.4376    8.3186 S.O2    1  UNL1        0.0769
     13 O           1.5357   30.9894    6.9699 O.2     1  UNL1       -0.1497
     14 O          -0.0132   31.9954    8.6948 O.2     1  UNL1       -0.1497
     15 H           5.1481   29.1763    8.9253 H       1  UNL1        0.2923
     16 C           4.8692   32.8596    8.0102 C.2     1  UNL1        0.2685
     17 O           5.2675   33.8939    8.5257 O.2     1  UNL1       -0.2683
     18 N           5.2509   32.3245    6.7941 N.am    1  UNL1       -0.2647
     19 H           4.8083   31.4529    6.5371 H       1  UNL1        0.1566
     20 C           6.1855   32.8630    5.9064 C.ar    1  UNL1        0.1344
     21 C           7.4829   32.3595    5.9689 C.ar    1  UNL1        0.0345
     22 C           8.4504   32.8595    5.0988 C.ar    1  UNL1        0.0045
     23 C           8.0996   33.8503    4.1934 C.ar    1  UNL1        0.0208
     24 C           6.7903   34.2956    4.1984 C.ar    1  UNL1        0.1003
     25 N           5.8378   33.8195    5.0291 N.ar    1  UNL1       -0.2290
@<TRIPOS>BOND
     1     1     2    1
     2     2     3    1
     3     2    12    1
     4     3    16    1
     5     3     4    2
     6    16    17    2
     7    16    18   am
     8    18    20    1
     9    18    19    1
    10    20    21   ar
    11    20    25   ar
    12    21    22   ar
    13    22    23   ar
    14    23    24   ar
    15    24    25   ar
    16     4     5    1
    17     4     6    1
    18     5    15    1
    19     6     7   ar
    20     6    11   ar
    21     7     8   ar
    22     8     9   ar
    23     9    10   ar
    24    10    11   ar
    25    11    12    1
    26    12    13    2
    27    12    14    2
#	Name:			CHEMBL529
#	Creating user name:	trannguyen
#	Creation time:		Tue Feb  8 18:26:14 2022


#	Modifying user name:	trannguyen
#	Modification time:	Tue Feb  8 18:26:14 2022

@<TRIPOS>MOLECULE
CHEMBL529
 57 59 0 0 0
SMALL
GASTEIGER

@<TRIPOS>ATOM
      1 C          11.7806   37.4146   10.3413 C.3     1  UNL1        0.1953
      2 O          10.9840   36.2578    9.8453 O.3     1  UNL1       -0.4497
      3 C           9.8348   35.9286   10.5417 C.2     1  UNL1        0.3188
      4 O           9.3962   36.5843   11.4471 O.2     1  UNL1       -0.2500
      5 C           9.2808   34.5190   10.1636 C.3     1  UNL1        0.1263
      6 C          10.4197   33.4937   10.2017 C.3     1  UNL1        0.0142
      7 C           8.2553   34.3401    8.9478 C.3     1  UNL1        0.1306
      8 C           8.7327   34.9773    7.5941 C.3     1  UNL1        0.0575
      9 C           8.5355   36.4935    7.6227 C.3     1  UNL1        0.0051
     10 C           8.4573   34.3080    6.1086 C.3     1  UNL1        0.1444
     11 C           9.4502   34.9577    4.9957 C.3     1  UNL1        0.1134
     12 C           8.8992   36.2707    4.4309 C.3     1  UNL1        0.0318
     13 O           9.5235   34.0595    3.8615 O.3     1  UNL1       -0.3844
     14 C          10.9157   35.0777    5.5106 C.3     1  UNL1        0.0307
     15 C          11.9696   35.8018    4.6440 C.3     1  UNL1        0.0184
     16 C          11.7431   37.3274    4.6209 C.3     1  UNL1        0.0015
     17 C          13.4172   35.4727    5.1296 C.3     1  UNL1        0.0722
     18 N          13.9008   36.3783    6.1827 N.3     1  UNL1       -0.2705
     19 C          15.1598   37.0162    5.7576 C.3     1  UNL1        0.0897
     20 C          13.9725   35.9148    7.6116 C.3     1  UNL1        0.0870
     21 C          13.0557   34.7595    7.9922 C.3     1  UNL1        0.0200
     22 C          13.7752   37.2035    8.5177 C.3     1  UNL1        0.1528
     23 O          12.9853   38.1683    7.8052 O.3     1  UNL1       -0.3806
     24 C          13.3232   37.1473   10.0206 C.3     1  UNL1        0.1506
     25 C          14.2277   38.1405   10.7932 C.3     1  UNL1        0.0356
     26 O          13.7003   35.8795   10.6012 O.3     1  UNL1       -0.3808
     27 H          10.0622   34.4869    3.1704 H       1  UNL1        0.2103
     28 H          13.0622   37.8867    6.8697 H       1  UNL1        0.2105
     29 H          12.8796   35.4211   10.8525 H       1  UNL1        0.2105
     30 C          10.2713   39.4934   10.8958 C.3     1  UNL1        0.0039
     31 C          11.1239   38.7415    9.8787 C.3     1  UNL1        0.0462
     32 O           7.0189   34.8088    9.5038 O.3     1  UNL1       -0.3323
     33 C           6.4494   34.1641   10.6289 C.3     1  UNL1        0.2375
     34 C           5.1601   34.7811   11.1732 C.3     1  UNL1        0.0910
     35 C           3.9279   34.5197   10.2840 C.3     1  UNL1        0.1246
     36 C           2.6500   35.0253   10.9749 C.3     1  UNL1        0.0324
     37 C           3.8447   32.9769   10.0898 C.3     1  UNL1        0.1623
     38 O           2.6937   32.5821    9.3356 O.3     1  UNL1       -0.3796
     39 C           5.1642   32.4508    9.4898 C.3     1  UNL1        0.1468
     40 C           5.1318   30.9250    9.3603 C.3     1  UNL1        0.0348
     41 O           6.2689   32.7676   10.3471 O.3     1  UNL1       -0.3304
     42 H           2.9354   32.5936    8.3937 H       1  UNL1        0.2105
     43 O           4.0650   35.1422    8.9888 O.3     1  UNL1       -0.3532
     44 C           3.0717   36.0985    8.6364 C.3     1  UNL1        0.1740
     45 O           7.0613   34.3306    5.6675 O.3     1  UNL1       -0.3287
     46 C           6.3346   33.0454    5.4754 C.3     1  UNL1        0.2643
     47 O           6.8358   32.4199    4.2651 O.3     1  UNL1       -0.3311
     48 C           6.1680   31.1944    3.9286 C.3     1  UNL1        0.1194
     49 C           6.8222   30.5259    2.7153 C.3     1  UNL1        0.0322
     50 C           4.7403   31.5196    3.5434 C.3     1  UNL1        0.0482
     51 C           3.9615   32.0524    4.7387 C.3     1  UNL1        0.0921
     52 C           4.7620   33.2101    5.4385 C.3     1  UNL1        0.1815
     53 O           4.2007   33.3328    6.7627 O.3     1  UNL1       -0.3783
     54 H           4.8527   32.9740    7.4034 H       1  UNL1        0.2106
     55 N           2.5817   32.4066    4.2560 N.3     1  UNL1       -0.2692
     56 C           1.5238   31.8362    5.1027 C.3     1  UNL1        0.0897
     57 C           2.3597   33.8441    4.1020 C.3     1  UNL1        0.0897
@<TRIPOS>BOND
     1    30    31    1
     2    31     1    1
     3     1     2    1
     4     1    24    1
     5     2     3    1
     6     3     4    2
     7     3     5    1
     8     5     6    1
     9     5     7    1
    10     7     8    1
    11     7    32    1
    12    32    33    1
    13    33    34    1
    14    33    41    1
    15    34    35    1
    16    35    37    1
    17    35    43    1
    18    35    36    1
    19    43    44    1
    20    37    39    1
    21    37    38    1
    22    38    42    1
    23    39    40    1
    24    39    41    1
    25     8     9    1
    26     8    10    1
    27    10    11    1
    28    10    45    1
    29    46    47    1
    30    46    52    1
    31    46    45    1
    32    47    48    1
    33    48    49    1
    34    48    50    1
    35    50    51    1
    36    51    55    1
    37    51    52    1
    38    55    56    1
    39    55    57    1
    40    52    53    1
    41    53    54    1
    42    11    12    1
    43    11    13    1
    44    11    14    1
    45    13    27    1
    46    14    15    1
    47    15    17    1
    48    15    16    1
    49    17    18    1
    50    18    19    1
    51    18    20    1
    52    20    21    1
    53    20    22    1
    54    22    24    1
    55    22    23    1
    56    23    28    1
    57    24    25    1
    58    24    26    1
    59    26    29    1
#	Name:			CHEMBL531
#	Creating user name:	trannguyen
#	Creation time:		Tue Feb  8 18:26:14 2022


#	Modifying user name:	trannguyen
#	Modification time:	Tue Feb  8 18:26:14 2022

@<TRIPOS>MOLECULE
CHEMBL531
 23 26 0 0 0
SMALL
GASTEIGER

@<TRIPOS>ATOM
      1 N           7.0990   32.0705    8.2970 N.3     1  UNL1       -0.2733
      2 C           6.4128   31.9989    9.5895 C.3     1  UNL1        0.0729
      3 C           4.8750   31.9318    9.5626 C.3     1  UNL1        0.0271
      4 C           4.3310   33.0880    8.7107 C.3     1  UNL1        0.0080
      5 C           4.9785   33.2217    7.3230 C.3     1  UNL1        0.0374
      6 C           4.4027   32.3565    6.2138 C.ar    1  UNL1       -0.0201
      7 C           3.0734   31.9361    6.0869 C.ar    1  UNL1       -0.0041
      8 C           2.6459   31.2266    4.9463 C.ar    1  UNL1        0.0012
      9 C           3.5179   30.9330    3.8878 C.ar    1  UNL1        0.0169
     10 C           4.8270   31.3941    4.0097 C.ar    1  UNL1        0.0560
     11 N           5.9204   31.3295    3.1646 N.ar    1  UNL1       -0.3523
     12 H           5.9204   30.8943    2.2591 H       1  UNL1        0.1660
     13 C           6.9956   31.9934    3.7307 C.ar    1  UNL1        0.0681
     14 C           6.5983   32.4694    4.9582 C.ar    1  UNL1       -0.0028
     15 C           5.2462   32.0794    5.1318 C.ar    1  UNL1        0.0092
     16 C           7.2719   33.2809    6.0129 C.3     1  UNL1        0.0442
     17 C           6.5615   33.1365    7.4152 C.3     1  UNL1        0.0659
     18 C           7.4550   30.7852    7.6956 C.3     1  UNL1        0.0721
     19 C           9.7751   31.5198    8.4830 C.3     1  UNL1        0.0015
     20 C           8.9742   30.5205    7.6552 C.3     1  UNL1        0.0173
     21 C           4.2602   30.5788    9.1651 C.3     1  UNL1        0.0590
     22 S           4.8197   29.2232   10.2595 S.3     1  UNL1       -0.1393
     23 C           3.2235   28.4346   10.5746 C.3     1  UNL1        0.0692
@<TRIPOS>BOND
     1    19    20    1
     2    20    18    1
     3    18     1    1
     4     1     2    1
     5     1    17    1
     6     2     3    1
     7     3     4    1
     8     3    21    1
     9    21    22    1
    10    22    23    1
    11     4     5    1
    12     5     6    1
    13     5    17    1
    14     6     7   ar
    15     6    15   ar
    16     7     8   ar
    17     8     9   ar
    18     9    10   ar
    19    10    11   ar
    20    10    15   ar
    21    11    13   ar
    22    11    12    1
    23    13    14   ar
    24    14    15   ar
    25    14    16    1
    26    16    17    1
#	Name:			CHEMBL532
#	Creating user name:	trannguyen
#	Creation time:		Tue Feb  8 18:26:14 2022


#	Modifying user name:	trannguyen
#	Modification time:	Tue Feb  8 18:26:14 2022

@<TRIPOS>MOLECULE
CHEMBL532
 56 58 0 0 0
SMALL
GASTEIGER

@<TRIPOS>ATOM
      1 C           8.1586   37.7260    8.9479 C.3     1  UNL1        0.1953
      2 O           8.1981   36.3782    8.3471 O.3     1  UNL1       -0.4497
      3 C           8.8938   35.4096    9.0202 C.2     1  UNL1        0.3188
      4 O           9.8897   35.6463    9.5900 O.2     1  UNL1       -0.2500
      5 C           8.0919   34.1175    9.2454 C.3     1  UNL1        0.1263
      6 C           8.9053   33.2999   10.2935 C.3     1  UNL1        0.0142
      7 C           7.6058   33.1996    8.1038 C.3     1  UNL1        0.1306
      8 C           8.6305   32.3663    7.2435 C.3     1  UNL1        0.0575
      9 C           8.8177   30.8640    7.6575 C.3     1  UNL1        0.0051
     10 C           9.7987   33.0152    6.4049 C.3     1  UNL1        0.1444
     11 C          11.1485   32.8204    7.2123 C.3     1  UNL1        0.1137
     12 C          11.9573   31.7941    6.3773 C.3     1  UNL1        0.0318
     13 O          11.0109   32.1963    8.4781 O.3     1  UNL1       -0.3844
     14 C          11.6683   34.2221    7.4854 C.3     1  UNL1        0.0366
     15 C          12.4429   34.8793    8.6360 C.3     1  UNL1        0.0601
     16 C          13.8001   34.1899    8.7131 C.3     1  UNL1        0.0078
     17 C          12.4499   36.4520    8.2722 C.2     1  UNL1        0.1523
     18 O          12.7663   36.7974    7.1697 O.2     1  UNL1       -0.2960
     19 C          12.2176   37.6252    9.2390 C.3     1  UNL1        0.0869
     20 C          12.5757   37.2265   10.6366 C.3     1  UNL1        0.0104
     21 C          11.0475   38.6860    9.0737 C.3     1  UNL1        0.1451
     22 O          11.3249   39.5365    7.9301 O.3     1  UNL1       -0.3815
     23 C           9.5211   38.4192    9.6327 C.3     1  UNL1        0.1497
     24 C           9.0707   39.8081   10.1400 C.3     1  UNL1        0.0356
     25 O           9.6981   37.6998   10.8812 O.3     1  UNL1       -0.3808
     26 H          11.9041   32.0585    8.8352 H       1  UNL1        0.2103
     27 H          10.6414   40.2026    7.7450 H       1  UNL1        0.2105
     28 H           9.9551   36.7872   10.6197 H       1  UNL1        0.2105
     29 C           7.7746   39.1233    6.7013 C.3     1  UNL1        0.0039
     30 C           7.2724   38.6581    8.0350 C.3     1  UNL1        0.0462
     31 O           6.2825   33.4396    7.4899 O.3     1  UNL1       -0.3323
     32 C           5.8395   32.8629    6.2430 C.3     1  UNL1        0.2375
     33 C           4.5935   32.0431    6.4407 C.3     1  UNL1        0.0910
     34 C           3.3190   32.9280    6.5753 C.3     1  UNL1        0.1246
     35 C           2.1094   32.0626    6.9469 C.3     1  UNL1        0.0324
     36 C           3.0675   33.7559    5.3060 C.3     1  UNL1        0.1623
     37 O           2.6760   35.1053    5.6428 O.3     1  UNL1       -0.3796
     38 C           4.3364   33.8084    4.4494 C.3     1  UNL1        0.1468
     39 C           4.1945   32.6979    3.3969 C.3     1  UNL1        0.0348
     40 O           5.5836   33.8426    5.2038 O.3     1  UNL1       -0.3304
     41 H           3.0613   35.2327    6.5410 H       1  UNL1        0.2105
     42 O           3.4190   33.9911    7.5377 O.3     1  UNL1       -0.3532
     43 C           3.0958   33.6579    8.8410 C.3     1  UNL1        0.1740
     44 O           9.4880   34.3967    5.9322 O.3     1  UNL1       -0.3287
     45 C           8.4873   34.6630    4.8589 C.3     1  UNL1        0.2643
     46 O           8.7068   33.9244    3.6775 O.3     1  UNL1       -0.3311
     47 C           8.0212   34.3277    2.5011 C.3     1  UNL1        0.1194
     48 C           7.8900   33.1671    1.5185 C.3     1  UNL1        0.0322
     49 C           8.7608   35.5062    1.9163 C.3     1  UNL1        0.0482
     50 C           8.8213   36.6504    2.9480 C.3     1  UNL1        0.0921
     51 C           8.3796   36.1944    4.4358 C.3     1  UNL1        0.1815
     52 O           6.9504   36.5124    4.5024 O.3     1  UNL1       -0.3783
     53 H           6.5864   36.4553    3.5990 H       1  UNL1        0.2106
     54 N          10.0400   37.4102    2.6400 N.3     1  UNL1       -0.2692
     55 C          11.1191   36.4848    2.7488 C.3     1  UNL1        0.0897
     56 C          10.2934   38.5633    3.4990 C.3     1  UNL1        0.0897
@<TRIPOS>BOND
     1    29    30    1
     2    30     1    1
     3     1     2    1
     4     1    23    1
     5     2     3    1
     6     3     4    2
     7     3     5    1
     8     5     6    1
     9     5     7    1
    10     7     8    1
    11     7    31    1
    12    31    32    1
    13    32    33    1
    14    32    40    1
    15    33    34    1
    16    34    36    1
    17    34    42    1
    18    34    35    1
    19    42    43    1
    20    36    38    1
    21    36    37    1
    22    37    41    1
    23    38    39    1
    24    38    40    1
    25     8     9    1
    26     8    10    1
    27    10    11    1
    28    10    44    1
    29    45    46    1
    30    45    51    1
    31    45    44    1
    32    46    47    1
    33    47    48    1
    34    47    49    1
    35    49    50    1
    36    50    54    1
    37    50    51    1
    38    54    55    1
    39    54    56    1
    40    51    52    1
    41    52    53    1
    42    11    12    1
    43    11    13    1
    44    11    14    1
    45    13    26    1
    46    14    15    1
    47    15    17    1
    48    15    16    1
    49    17    18    2
    50    17    19    1
    51    19    20    1
    52    19    21    1
    53    21    23    1
    54    21    22    1
    55    22    27    1
    56    23    24    1
    57    23    25    1
    58    25    28    1
#	Name:			CHEMBL53463
#	Creating user name:	trannguyen
#	Creation time:		Tue Feb  8 18:26:14 2022


#	Modifying user name:	trannguyen
#	Modification time:	Tue Feb  8 18:26:14 2022

@<TRIPOS>MOLECULE
CHEMBL53463
 46 50 0 0 0
SMALL
GASTEIGER

@<TRIPOS>ATOM
      1 C           2.2348   29.5122    9.6762 C.ar    1  UNL1        0.1418
      2 C           0.8610   29.6145    9.4059 C.ar    1  UNL1        0.0370
      3 C           0.2690   30.8500    9.1490 C.ar    1  UNL1        0.0032
      4 C           1.0363   32.0076    9.1865 C.ar    1  UNL1        0.0035
      5 C           2.4089   31.9210    9.4458 C.ar    1  UNL1        0.0451
      6 C           3.0220   30.6813    9.6549 C.ar    1  UNL1        0.0760
      7 C           4.5070   30.6435    9.7854 C.2     1  UNL1        0.2017
      8 O           5.1299   29.6670   10.1577 O.2     1  UNL1       -0.2864
      9 C           5.2868   31.8566    9.4443 C.ar    1  UNL1        0.0784
     10 C           6.6576   31.7731    9.1496 C.ar    1  UNL1        0.1349
     11 O           7.3064   30.5655    9.1036 O.3     1  UNL1       -0.5057
     12 C           7.4208   32.9316    8.9472 C.ar    1  UNL1        0.0376
     13 C           6.8490   34.1699    9.2934 C.ar    1  UNL1        0.0156
     14 C           5.4549   34.2538    9.4526 C.ar    1  UNL1        0.1328
     15 O           4.9124   35.5019    9.6137 O.3     1  UNL1       -0.5057
     16 C           4.6666   33.0977    9.4618 C.ar    1  UNL1        0.0783
     17 C           3.1958   33.1731    9.4892 C.2     1  UNL1        0.1989
     18 O           2.6459   34.2615    9.4967 O.2     1  UNL1       -0.2865
     19 C           7.7232   35.3636    9.6472 C.3     1  UNL1        0.0635
     20 C           9.2420   35.1969    9.4078 C.3     1  UNL1        0.1482
     21 O           9.5549   35.8570    8.1758 O.3     1  UNL1       -0.3793
     22 C           9.6922   33.7215    9.3617 C.3     1  UNL1        0.0688
     23 C           8.8425   32.8821    8.4153 C.3     1  UNL1        0.1454
     24 H           6.7326   29.8977    9.5507 H       1  UNL1        0.2922
     25 H           3.9317   35.4266    9.5618 H       1  UNL1        0.2922
     26 H          10.4188   35.5445    7.8629 H       1  UNL1        0.2108
     27 C           2.2947   27.4971   10.9701 C.3     1  UNL1        0.2525
     28 O           2.8529   28.3242    9.9559 O.3     1  UNL1       -0.4713
     29 C          10.0767   35.9338   10.4751 C.2     1  UNL1        0.2042
     30 O          11.3046   36.0600   10.3895 O.2     1  UNL1       -0.2910
     31 C           9.3512   36.5493   11.6609 C.3     1  UNL1        0.2044
     32 O          10.2201   36.5854   12.7834 O.3     1  UNL1       -0.3749
     33 H          11.0456   37.0068   12.4744 H       1  UNL1        0.2110
     34 O           8.8328   33.3565    7.0529 O.3     1  UNL1       -0.3283
     35 C           8.8260   32.3652    6.0151 C.3     1  UNL1        0.2368
     36 C           7.4490   31.7673    5.7552 C.3     1  UNL1        0.0793
     37 C           6.4644   32.8760    5.3816 C.3     1  UNL1        0.0855
     38 N           5.3114   32.3094    4.6624 N.3     1  UNL1       -0.3201
     39 C           7.1641   34.0317    4.6213 C.3     1  UNL1        0.1517
     40 O           6.2465   34.7044    3.7505 O.3     1  UNL1       -0.3806
     41 C           8.4483   33.5718    3.9115 C.3     1  UNL1        0.1458
     42 C           8.2201   32.7254    2.6515 C.3     1  UNL1        0.0348
     43 O           9.3703   32.9084    4.7959 O.3     1  UNL1       -0.3304
     44 H           4.8625   33.0933    4.1747 H       1  UNL1        0.1189
     45 H           4.6271   31.9716    5.3376 H       1  UNL1        0.1189
     46 H           6.6741   35.5380    3.4867 H       1  UNL1        0.2105
@<TRIPOS>BOND
     1    27    28    1
     2    28     1    1
     3     1     2   ar
     4     1     6   ar
     5     2     3   ar
     6     3     4   ar
     7     4     5   ar
     8     5     6   ar
     9     5    17    1
    10     6     7    1
    11     7     8    2
    12     7     9    1
    13     9    10   ar
    14     9    16   ar
    15    10    11    1
    16    10    12   ar
    17    11    24    1
    18    12    13   ar
    19    12    23    1
    20    13    14   ar
    21    13    19    1
    22    14    15    1
    23    14    16   ar
    24    15    25    1
    25    16    17    1
    26    17    18    2
    27    19    20    1
    28    20    22    1
    29    20    29    1
    30    20    21    1
    31    21    26    1
    32    29    30    2
    33    29    31    1
    34    31    32    1
    35    32    33    1
    36    22    23    1
    37    23    34    1
    38    34    35    1
    39    35    36    1
    40    35    43    1
    41    36    37    1
    42    37    38    1
    43    37    39    1
    44    38    44    1
    45    38    45    1
    46    39    40    1
    47    39    41    1
    48    40    46    1
    49    41    42    1
    50    41    43    1
#	Name:			CHEMBL534
#	Creating user name:	trannguyen
#	Creation time:		Tue Feb  8 18:26:14 2022


#	Modifying user name:	trannguyen
#	Modification time:	Tue Feb  8 18:26:14 2022

@<TRIPOS>MOLECULE
CHEMBL534
 22 25 0 0 0
SMALL
GASTEIGER

@<TRIPOS>ATOM
      1 C           2.9234   32.8784    3.3630 C.3     1  UNL1        0.0897
      2 N           3.7197   31.8178    3.9767 N.3     1  UNL1       -0.2709
      3 C           4.8001   32.3520    4.8164 C.3     1  UNL1        0.0765
      4 C           4.3329   33.0041    6.1282 C.3     1  UNL1        0.0394
      5 C           3.4370   32.0868    6.9566 C.2     1  UNL1       -0.0414
      6 C           3.6054   31.8474    8.2893 C.2     1  UNL1       -0.0075
      7 C           2.6981   30.8674    8.9591 C.ar    1  UNL1       -0.0041
      8 C           1.3289   31.1404    9.1099 C.ar    1  UNL1       -0.0003
      9 C           0.4779   30.1988    9.6895 C.ar    1  UNL1       -0.0000
     10 C           0.9910   28.9910   10.1547 C.ar    1  UNL1       -0.0003
     11 C           2.3568   28.7267   10.0531 C.ar    1  UNL1       -0.0038
     12 C           3.2221   29.6594    9.4599 C.ar    1  UNL1       -0.0145
     13 C           4.6991   29.3618    9.3600 C.3     1  UNL1        0.0959
     14 C           5.5652   30.2898   10.1969 C.2     1  UNL1        0.1833
     15 O           6.3028   29.7945   11.0561 O.2     1  UNL1       -0.2905
     16 C           5.5235   31.7202    9.8985 C.ar    1  UNL1        0.0644
     17 S           6.6937   32.7419   10.6370 S.2     1  UNL1       -0.0835
     18 C           6.0537   34.1392    9.9013 C.ar    1  UNL1        0.0355
     19 C           4.9511   33.8519    9.1317 C.ar    1  UNL1        0.0075
     20 C           4.6748   32.4450    9.0691 C.ar    1  UNL1        0.0087
     21 C           2.3498   31.4600    6.0826 C.3     1  UNL1        0.0394
     22 C           2.8953   30.8878    4.7618 C.3     1  UNL1        0.0765
@<TRIPOS>BOND
     1     1     2    1
     2     2     3    1
     3     2    22    1
     4     3     4    1
     5     4     5    1
     6     5     6    2
     7     5    21    1
     8     6     7    1
     9     6    20    1
    10     7     8   ar
    11     7    12   ar
    12     8     9   ar
    13     9    10   ar
    14    10    11   ar
    15    11    12   ar
    16    12    13    1
    17    13    14    1
    18    14    15    2
    19    14    16    1
    20    16    17   ar
    21    16    20   ar
    22    17    18   ar
    23    18    19   ar
    24    19    20   ar
    25    21    22    1
#	Name:			CHEMBL540445
#	Creating user name:	trannguyen
#	Creation time:		Tue Feb  8 18:26:14 2022


#	Modifying user name:	trannguyen
#	Modification time:	Tue Feb  8 18:26:14 2022

@<TRIPOS>MOLECULE
CHEMBL540445
 18 20 0 0 0
SMALL
GASTEIGER

@<TRIPOS>ATOM
      1 C           2.7355   30.5849    8.6878 C.2     1  UNL1        0.0021
      2 C           2.7103   31.8970    8.4016 C.2     1  UNL1        0.0566
      3 C           3.2529   32.9412    9.2887 C.2     1  UNL1        0.3373
      4 O           3.0464   33.0636   10.4689 O.2     1  UNL1       -0.2453
      5 O           3.9278   33.8013    8.4564 O.3     1  UNL1       -0.4464
      6 C           3.7523   33.3973    7.0423 C.3     1  UNL1        0.2024
      7 C           2.4170   32.6409    7.1394 C.3     1  UNL1        0.0717
      8 C           1.6533   31.8035    6.1134 C.3     1  UNL1        0.0126
      9 C           1.4880   32.3523    4.7042 C.3     1  UNL1        0.0222
     10 C           2.7641   32.1682    3.9384 C.2     1  UNL1       -0.0482
     11 C           3.3183   30.7674    3.8753 C.3     1  UNL1        0.0260
     12 C           3.3879   33.2589    3.4694 C.2     1  UNL1       -0.0345
     13 C           4.8235   33.3170    3.0657 C.3     1  UNL1        0.0279
     14 C           5.6005   33.9050    4.2527 C.3     1  UNL1        0.0344
     15 C           5.8729   32.8815    5.3390 C.3     1  UNL1        0.1216
     16 C           6.8700   31.8086    4.9785 C.3     1  UNL1        0.0323
     17 O           6.1698   33.5051    6.5938 O.3     1  UNL1       -0.3524
     18 C           5.0049   32.6562    6.6130 C.3     1  UNL1        0.1798
@<TRIPOS>BOND
     1     1     2    2
     2     2     3    1
     3     2     7    1
     4     3     4    2
     5     3     5    1
     6     5     6    1
     7     6     7    1
     8     6    18    1
     9     7     8    1
    10     8     9    1
    11     9    10    1
    12    10    11    1
    13    10    12    2
    14    12    13    1
    15    13    14    1
    16    14    15    1
    17    15    16    1
    18    15    17    1
    19    15    18    1
    20    17    18    1
#	Name:			CHEMBL54126
#	Creating user name:	trannguyen
#	Creation time:		Tue Feb  8 18:26:14 2022


#	Modifying user name:	trannguyen
#	Modification time:	Tue Feb  8 18:26:14 2022

@<TRIPOS>MOLECULE
CHEMBL54126
 16 16 0 0 0
SMALL
GASTEIGER

@<TRIPOS>ATOM
      1 C           3.5028   31.9700    8.2504 C.ar    1  UNL1        0.1512
      2 C           4.8554   32.2503    8.3982 C.ar    1  UNL1        0.0377
      3 C           5.6216   32.5042    7.2632 C.ar    1  UNL1        0.0044
      4 C           5.0226   32.5137    5.9954 C.ar    1  UNL1        0.0134
      5 C           3.6483   32.2683    5.8491 C.ar    1  UNL1        0.0374
      6 C           2.9181   31.9227    6.9858 C.ar    1  UNL1        0.0508
      7 N           2.9618   32.3101    4.4940 N.pl3   1  UNL1       -0.3511
      8 C           1.4641   32.6187    4.6581 C.3     1  UNL1        0.0960
      9 C           3.1426   30.9525    3.8421 C.3     1  UNL1        0.0960
     10 C           3.5422   33.4158    3.6246 C.3     1  UNL1        0.0960
     11 O           2.7719   31.6664    9.4145 O.3     1  UNL1       -0.4101
     12 C           1.4823   28.3502   10.2990 C.3     1  UNL1        0.1184
     13 N           1.6473   29.6562    9.6867 N.am    1  UNL1       -0.2422
     14 C           0.4366   30.2799    9.1759 C.3     1  UNL1        0.1184
     15 C           2.8027   30.3693    9.9488 C.2     1  UNL1        0.4095
     16 O           3.7505   29.9244   10.5910 O.2     1  UNL1       -0.2258
@<TRIPOS>BOND
     1    12    13    1
     2    13    14    1
     3    13    15   am
     4    15    16    2
     5    15    11    1
     6    11     1    1
     7     1     2   ar
     8     1     6   ar
     9     2     3   ar
    10     3     4   ar
    11     4     5   ar
    12     5     7    1
    13     5     6   ar
    14     7     8    1
    15     7     9    1
    16     7    10    1
#	Name:			CHEMBL541
#	Creating user name:	trannguyen
#	Creation time:		Tue Feb  8 18:26:14 2022


#	Modifying user name:	trannguyen
#	Modification time:	Tue Feb  8 18:26:14 2022

@<TRIPOS>MOLECULE
CHEMBL541
 10 10 0 0 0
SMALL
GASTEIGER

@<TRIPOS>ATOM
      1 C           2.5484   28.8497   10.4761 C.ar    1  UNL1        0.0755
      2 C           3.9481   28.7986   10.4700 C.ar    1  UNL1        0.0064
      3 C           4.6730   29.7975    9.8178 C.ar    1  UNL1        0.0002
      4 C           4.0032   30.8353    9.1674 C.ar    1  UNL1        0.0000
      5 C           2.6080   30.8739    9.1568 C.ar    1  UNL1        0.0002
      6 C           1.8780   29.8780    9.8061 C.ar    1  UNL1        0.0064
      7 O           2.2335   26.8452   11.7161 O.2     1  UNL1       -0.2451
      8 C           1.7444   27.8102   11.1574 C.2     1  UNL1        0.3380
      9 O           0.4152   28.0179   11.0440 O.3     1  UNL1       -0.4771
     10 H           0.1709   28.7281   10.4213 H       1  UNL1        0.2954
@<TRIPOS>BOND
     1     7     8    2
     2     8     9    1
     3     8     1    1
     4     9    10    1
     5     1     2   ar
     6     1     6   ar
     7     2     3   ar
     8     3     4   ar
     9     4     5   ar
    10     5     6   ar
#	Name:			CHEMBL547
#	Creating user name:	trannguyen
#	Creation time:		Tue Feb  8 18:26:14 2022


#	Modifying user name:	trannguyen
#	Modification time:	Tue Feb  8 18:26:14 2022

@<TRIPOS>MOLECULE
CHEMBL547
 23 23 0 0 0
SMALL
GASTEIGER

@<TRIPOS>ATOM
      1 C           5.6297   31.2037    9.3187 C.2     1  UNL1       -0.0219
      2 C           5.9476   30.1844   10.3824 C.3     1  UNL1        0.0310
      3 C           4.4015   31.6291    8.9692 C.2     1  UNL1       -0.0043
      4 C           7.5514   31.0916    7.7713 C.2     1  UNL1       -0.0052
      5 C           6.8103   31.7540    8.6737 C.2     1  UNL1       -0.0046
      6 C          10.1737   30.0929    8.7443 C.3     1  UNL1        0.0260
      7 C          10.0011   31.1733    7.7004 C.2     1  UNL1       -0.0479
      8 C           8.8048   31.6088    7.2286 C.2     1  UNL1       -0.0307
      9 C           8.6866   32.6484    6.0925 C.3     1  UNL1        0.0183
     10 C           8.2220   34.0012    6.6783 C.3     1  UNL1        0.0043
     11 C           7.6778   32.2189    5.0020 C.3     1  UNL1        0.0043
     12 C          10.0514   32.8485    5.3786 C.3     1  UNL1        0.0044
     13 C          11.2006   32.9820    6.3654 C.3     1  UNL1        0.0047
     14 C          11.3211   31.7185    7.2047 C.3     1  UNL1        0.0217
     15 C           3.1492   31.1914    9.5435 C.2     1  UNL1       -0.0006
     16 C           2.5103   30.0869    9.1295 C.2     1  UNL1       -0.0041
     17 C           1.2146   29.6799    9.6449 C.2     1  UNL1       -0.0154
     18 C           0.0445   30.4753    9.1099 C.3     1  UNL1        0.0312
     19 C           0.9935   28.6550   10.4865 C.2     1  UNL1        0.0774
     20 C           1.8951   27.6978   11.1696 C.2     1  UNL1        0.3379
     21 O           2.2991   27.9095   12.2980 O.2     1  UNL1       -0.2451
     22 O           2.2774   26.6285   10.4446 O.3     1  UNL1       -0.4771
     23 H           1.9598   26.6260    9.5281 H       1  UNL1        0.2954
@<TRIPOS>BOND
     1     6     7    1
     2     7     8    2
     3     7    14    1
     4     8     4    1
     5     8     9    1
     6     4     5    2
     7     5     1    1
     8     1     2    1
     9     1     3    2
    10     3    15    1
    11    15    16    2
    12    16    17    1
    13    17    18    1
    14    17    19    2
    15    19    20    1
    16    20    21    2
    17    20    22    1
    18    22    23    1
    19     9    10    1
    20     9    11    1
    21     9    12    1
    22    12    13    1
    23    13    14    1
#	Name:			CHEMBL549
#	Creating user name:	trannguyen
#	Creation time:		Tue Feb  8 18:26:14 2022


#	Modifying user name:	trannguyen
#	Modification time:	Tue Feb  8 18:26:14 2022

@<TRIPOS>MOLECULE
CHEMBL549
 24 26 0 0 0
SMALL
GASTEIGER

@<TRIPOS>ATOM
      1 C           3.4601   32.4380    7.9281 C.3     1  UNL1        0.1303
      2 O           2.0388   32.7038    7.6951 O.3     1  UNL1       -0.3457
      3 C           1.2596   31.5105    7.9183 C.3     1  UNL1        0.1690
      4 C           2.1308   30.6579    8.7578 C.ar    1  UNL1        0.0065
      5 C           1.8006   29.5027    9.4528 C.ar    1  UNL1        0.0082
      6 C           2.8009   28.8627   10.1918 C.ar    1  UNL1        0.0682
      7 C           4.1070   29.3842   10.2069 C.ar    1  UNL1        0.0100
      8 C           4.4209   30.5484    9.4941 C.ar    1  UNL1       -0.0013
      9 C           3.4200   31.1786    8.7656 C.ar    1  UNL1        0.0043
     10 C           4.1855   32.2448    6.5860 C.ar    1  UNL1        0.0060
     11 C           5.5746   32.4526    6.4661 C.ar    1  UNL1        0.0006
     12 C           6.2387   32.2331    5.2568 C.ar    1  UNL1        0.0294
     13 C           5.5224   31.7980    4.1523 C.ar    1  UNL1        0.1401
     14 F           6.1615   31.5696    2.9977 F       1  UNL1       -0.2042
     15 C           4.1531   31.5876    4.2318 C.ar    1  UNL1        0.0294
     16 C           3.4873   31.8120    5.4405 C.ar    1  UNL1        0.0006
     17 C           2.4906   27.6812   10.9456 C.1     1  UNL1        0.1004
     18 N           2.2354   26.7307   11.5574 N.1     1  UNL1       -0.1908
     19 C           4.0100   33.6496    8.7286 C.3     1  UNL1        0.0372
     20 C           3.1794   33.9929    9.9793 C.3     1  UNL1        0.0204
     21 C           2.5228   35.3837    9.9203 C.3     1  UNL1        0.0723
     22 C           0.5199   36.6983   10.1708 C.3     1  UNL1        0.0897
     23 N           1.2475   35.5161   10.6455 N.3     1  UNL1       -0.2703
     24 C           0.4024   34.3292   10.4942 C.3     1  UNL1        0.0897
@<TRIPOS>BOND
     1    22    23    1
     2    23    24    1
     3    23    21    1
     4    21    20    1
     5    20    19    1
     6    19     1    1
     7     1    10    1
     8     1     2    1
     9     1     9    1
    10    10    11   ar
    11    10    16   ar
    12    11    12   ar
    13    12    13   ar
    14    13    14    1
    15    13    15   ar
    16    15    16   ar
    17     2     3    1
    18     3     4    1
    19     4     5   ar
    20     4     9   ar
    21     5     6   ar
    22     6    17    1
    23     6     7   ar
    24    17    18    3
    25     7     8   ar
    26     8     9   ar
#	Name:			CHEMBL54
#	Creating user name:	trannguyen
#	Creation time:		Tue Feb  8 18:26:14 2022


#	Modifying user name:	trannguyen
#	Modification time:	Tue Feb  8 18:26:14 2022

@<TRIPOS>MOLECULE
CHEMBL54
 27 29 0 0 0
SMALL
GASTEIGER

@<TRIPOS>ATOM
      1 N           4.9704   32.6472    4.5237 N.3     1  UNL1       -0.2725
      2 C           5.2995   33.9782    3.9951 C.3     1  UNL1        0.0748
      3 C           6.8007   34.2111    3.7793 C.3     1  UNL1        0.0485
      4 C           7.5224   33.0860    3.0016 C.3     1  UNL1        0.1096
      5 O           8.9134   33.1803    3.3814 O.3     1  UNL1       -0.3826
      6 C           7.0412   31.7000    3.4700 C.3     1  UNL1        0.0485
      7 C           5.5233   31.6267    3.6175 C.3     1  UNL1        0.0748
      8 H           9.2155   34.0737    3.1470 H       1  UNL1        0.2107
      9 C           7.4906   33.2084    1.4692 C.ar    1  UNL1        0.0019
     10 C           7.0643   34.3658    0.7995 C.ar    1  UNL1       -0.0012
     11 C           7.0435   34.4397   -0.5978 C.ar    1  UNL1        0.0111
     12 C           7.4616   33.3552   -1.3575 C.ar    1  UNL1        0.0577
     13 CL          7.4449   33.4579   -3.0737 Cl      1  UNL1       -0.0822
     14 C           7.8932   32.1933   -0.7299 C.ar    1  UNL1        0.0111
     15 C           7.8984   32.1192    0.6685 C.ar    1  UNL1       -0.0012
     16 C           5.3939   32.5117    5.9343 C.3     1  UNL1        0.0726
     17 C           4.3310   32.9706    6.9455 C.3     1  UNL1        0.0254
     18 C           3.5047   31.8224    7.5370 C.3     1  UNL1        0.0706
     19 O           4.1607   32.5059    9.7639 O.2     1  UNL1       -0.2913
     20 C           3.6759   31.6327    9.0391 C.2     1  UNL1        0.1731
     21 C           3.2469   30.3387    9.6594 C.ar    1  UNL1        0.0348
     22 C           1.9408   30.1359   10.1309 C.ar    1  UNL1        0.0051
     23 C           1.5838   28.9114   10.7059 C.ar    1  UNL1        0.0297
     24 C           2.5260   27.8952   10.8126 C.ar    1  UNL1        0.1401
     25 F           2.1766   26.7280   11.3681 F       1  UNL1       -0.2042
     26 C           3.8232   28.0761   10.3507 C.ar    1  UNL1        0.0297
     27 C           4.1838   29.2962    9.7720 C.ar    1  UNL1        0.0051
@<TRIPOS>BOND
     1    19    20    2
     2    20    18    1
     3    20    21    1
     4    18    17    1
     5    17    16    1
     6    16     1    1
     7     1     2    1
     8     1     7    1
     9     2     3    1
    10     3     4    1
    11     4     5    1
    12     4     9    1
    13     4     6    1
    14     5     8    1
    15     9    10   ar
    16     9    15   ar
    17    10    11   ar
    18    11    12   ar
    19    12    13    1
    20    12    14   ar
    21    14    15   ar
    22     6     7    1
    23    21    22   ar
    24    21    27   ar
    25    22    23   ar
    26    23    24   ar
    27    24    25    1
    28    24    26   ar
    29    26    27   ar
#	Name:			CHEMBL553025
#	Creating user name:	trannguyen
#	Creation time:		Tue Feb  8 18:26:14 2022


#	Modifying user name:	trannguyen
#	Modification time:	Tue Feb  8 18:26:14 2022

@<TRIPOS>MOLECULE
CHEMBL553025
 59 67 0 0 0
SMALL
GASTEIGER

@<TRIPOS>ATOM
      1 C           7.0564   33.5036    8.6255 C.ar    1  UNL1        0.0262
      2 C           7.6732   34.4735    9.4644 C.ar    1  UNL1       -0.0034
      3 C           8.9440   35.0047    9.1675 C.ar    1  UNL1       -0.0066
      4 C           9.6213   34.6805    8.0156 C.ar    1  UNL1        0.0470
      5 C           9.0101   33.8180    7.1427 C.ar    1  UNL1        0.0508
      6 C           7.7969   33.1598    7.4463 C.ar    1  UNL1        0.1368
      7 N          10.8508   35.3611    7.8483 N.pl3   1  UNL1       -0.3043
      8 C          11.8567   34.6953    7.0142 C.3     1  UNL1        0.1122
      9 C          11.1935   35.7783    9.2494 C.3     1  UNL1        0.1163
     10 C          12.0936   37.0369    9.4385 C.3     1  UNL1        0.2316
     11 O          12.2746   37.2196   10.8753 O.3     1  UNL1       -0.3727
     12 C          11.5085   38.3361    8.8019 C.3     1  UNL1        0.2097
     13 C           9.9258   38.4645    8.8274 C.3     1  UNL1        0.0719
     14 C           9.4430   39.8732    9.2772 C.2     1  UNL1       -0.0250
     15 C           8.7877   40.1103   10.4244 C.2     1  UNL1       -0.0132
     16 C           8.5314   39.0572   11.4544 C.3     1  UNL1        0.0985
     17 N           9.3953   37.8990   11.2205 N.3     1  UNL1       -0.2695
     18 C           9.0410   36.7710   12.0793 C.3     1  UNL1        0.0728
     19 C           9.8037   35.6314   11.4349 C.3     1  UNL1        0.0244
     20 C           9.7990   35.9813    9.9337 C.3     1  UNL1        0.0547
     21 C           9.2514   37.4236    9.8177 C.3     1  UNL1        0.0703
     22 H          11.5797   37.8381   11.1779 H       1  UNL1        0.2111
     23 C           1.1977   34.5215   10.3029 C.2     1  UNL1       -0.0325
     24 C           2.4710   34.7534   10.7162 C.2     1  UNL1       -0.0322
     25 C           3.4381   33.7467   10.1873 C.3     1  UNL1        0.0386
     26 C           2.8490   32.3914   10.5903 C.3     1  UNL1        0.0770
     27 N           1.7932   32.0937    9.6387 N.3     1  UNL1       -0.2651
     28 C           0.8720   33.2482    9.4521 C.3     1  UNL1        0.0948
     29 C           2.3482   31.4305    8.4401 C.3     1  UNL1        0.1006
     30 C           3.3098   32.2288    7.5533 C.ar    1  UNL1        0.0075
     31 C           4.5991   32.8033    7.7794 C.ar    1  UNL1        0.0444
     32 N           4.8867   33.5094    6.6319 N.ar    1  UNL1       -0.3560
     33 H           5.6514   34.1599    6.5373 H       1  UNL1        0.1657
     34 C           4.0212   33.2234    5.6162 C.ar    1  UNL1        0.0561
     35 C           4.0716   33.6046    4.2724 C.ar    1  UNL1        0.0169
     36 C           3.0387   33.1738    3.4397 C.ar    1  UNL1        0.0015
     37 C           1.9771   32.4320    3.9476 C.ar    1  UNL1        0.0001
     38 C           1.9368   32.0813    5.3029 C.ar    1  UNL1        0.0012
     39 C           2.9980   32.4610    6.1574 C.ar    1  UNL1        0.0140
     40 C           5.6050   32.9076    9.0200 C.3     1  UNL1        0.1441
     41 C           4.9637   33.8022   10.1975 C.3     1  UNL1        0.0261
     42 C           0.4021   36.9208   10.1942 C.3     1  UNL1        0.0047
     43 C           0.0725   35.4845   10.5809 C.3     1  UNL1        0.0231
     44 C           5.7795   31.4058    9.5203 C.2     1  UNL1        0.3253
     45 O           5.5856   30.4030    8.8729 O.2     1  UNL1       -0.2494
     46 O           6.2470   31.3816   10.8142 O.3     1  UNL1       -0.4439
     47 C           6.4612   30.0824   11.3743 C.3     1  UNL1        0.2556
     48 O           7.3322   32.1628    6.6201 O.3     1  UNL1       -0.4717
     49 C           7.6955   32.1678    5.2277 C.3     1  UNL1        0.2525
     50 C          13.5521   36.7548    8.9946 C.2     1  UNL1        0.3466
     51 O          14.0962   37.1731    7.9764 O.2     1  UNL1       -0.2473
     52 O          14.1798   35.9392    9.8930 O.3     1  UNL1       -0.4427
     53 C          15.4589   35.4715    9.4669 C.3     1  UNL1        0.2557
     54 C           9.3522   38.3168    7.3687 C.3     1  UNL1        0.0089
     55 C           7.8281   38.1184    7.2436 C.3     1  UNL1        0.0005
     56 O          12.0397   39.5232    9.4762 O.3     1  UNL1       -0.4488
     57 C          12.8322   40.3419    8.7641 C.2     1  UNL1        0.3175
     58 C          12.6202   40.2190    7.2869 C.3     1  UNL1        0.1212
     59 O          13.7436   41.0423    9.2521 O.2     1  UNL1       -0.2501
@<TRIPOS>BOND
     1    42    43    1
     2    43    23    1
     3    23    24    2
     4    23    28    1
     5    24    25    1
     6    25    26    1
     7    25    41    1
     8    26    27    1
     9    27    28    1
    10    27    29    1
    11    29    30    1
    12    30    31   ar
    13    30    39   ar
    14    31    32   ar
    15    31    40    1
    16    32    33    1
    17    32    34   ar
    18    34    35   ar
    19    34    39   ar
    20    35    36   ar
    21    36    37   ar
    22    37    38   ar
    23    38    39   ar
    24    40    44    1
    25    40    41    1
    26    40     1    1
    27    44    45    2
    28    44    46    1
    29    46    47    1
    30     1     2   ar
    31     1     6   ar
    32     2     3   ar
    33     3     4   ar
    34     3    20    1
    35     4     5   ar
    36     4     7    1
    37     5     6   ar
    38     6    48    1
    39    48    49    1
    40     7     9    1
    41     7     8    1
    42     9    10    1
    43     9    20    1
    44    10    12    1
    45    10    11    1
    46    10    50    1
    47    11    22    1
    48    50    51    2
    49    50    52    1
    50    52    53    1
    51    12    13    1
    52    12    56    1
    53    56    57    1
    54    57    58    1
    55    57    59    2
    56    13    14    1
    57    13    21    1
    58    13    54    1
    59    54    55    1
    60    14    15    2
    61    15    16    1
    62    16    17    1
    63    17    18    1
    64    17    21    1
    65    18    19    1
    66    20    19    1
    67    20    21    1
#	Name:			CHEMBL557555
#	Creating user name:	trannguyen
#	Creation time:		Tue Feb  8 18:26:14 2022


#	Modifying user name:	trannguyen
#	Modification time:	Tue Feb  8 18:26:14 2022

@<TRIPOS>MOLECULE
CHEMBL557555
 19 20 0 0 0
SMALL
GASTEIGER

@<TRIPOS>ATOM
      1 C           4.1742   29.9651    9.5876 C.ar    1  UNL1        0.1390
      2 C           4.4462   31.0998    8.8382 C.ar    1  UNL1        0.0366
      3 C           5.6712   31.7689    8.9872 C.ar    1  UNL1       -0.0011
      4 C           6.6407   31.3574    9.9167 C.ar    1  UNL1       -0.0199
      5 C           6.3410   30.2173   10.6730 C.ar    1  UNL1       -0.0011
      6 C           5.1249   29.5401   10.5186 C.ar    1  UNL1        0.0366
      7 C           7.9581   32.0930   10.0379 C.3     1  UNL1        0.0528
      8 C           8.2356   33.2598    9.1145 C.3     1  UNL1        0.0375
      9 C           8.1056   33.4968   10.5901 C.3     1  UNL1        0.1373
     10 CL          6.7265   34.4437   11.1257 Cl      1  UNL1       -0.0993
     11 CL          9.5822   33.8608   11.4869 Cl      1  UNL1       -0.0993
     12 O           3.0548   29.1908    9.5463 O.3     1  UNL1       -0.4720
     13 C           1.7741   30.9175   10.8143 C.3     1  UNL1        0.0553
     14 C           1.8169   29.5136   10.1972 C.3     1  UNL1        0.2210
     15 C           0.7826   29.5100    9.0520 C.3     1  UNL1        0.0553
     16 C           1.3629   28.4379   11.2038 C.2     1  UNL1        0.3503
     17 O           2.0332   28.0349   12.1361 O.2     1  UNL1       -0.2464
     18 O           0.0965   27.9933   10.9811 O.3     1  UNL1       -0.4778
     19 H          -0.2862   28.3943   10.1744 H       1  UNL1        0.2952
@<TRIPOS>BOND
     1    13    14    1
     2    14    15    1
     3    14    12    1
     4    14    16    1
     5    12     1    1
     6     1     2   ar
     7     1     6   ar
     8     2     3   ar
     9     3     4   ar
    10     4     7    1
    11     4     5   ar
    12     7     8    1
    13     7     9    1
    14     8     9    1
    15     9    10    1
    16     9    11    1
    17     5     6   ar
    18    16    17    2
    19    16    18    1
    20    18    19    1
#	Name:			CHEMBL558551
#	Creating user name:	trannguyen
#	Creation time:		Tue Feb  8 18:26:14 2022


#	Modifying user name:	trannguyen
#	Modification time:	Tue Feb  8 18:26:14 2022

@<TRIPOS>MOLECULE
CHEMBL558551
 20 22 0 0 0
SMALL
GASTEIGER

@<TRIPOS>ATOM
      1 N           3.4625   31.8536    9.5686 N.am    1  UNL1       -0.2158
      2 C           4.5332   31.0095    9.6877 C.2     1  UNL1        0.2554
      3 O           5.7197   31.2742    9.7110 O.2     1  UNL1       -0.2695
      4 C           3.9902   29.6588    9.8169 C.ar    1  UNL1        0.0584
      5 C           4.6327   28.4426    9.9398 C.ar    1  UNL1        0.0047
      6 C           3.8279   27.3048   10.0575 C.ar    1  UNL1        0.0001
      7 C           2.4210   27.4098   10.0535 C.ar    1  UNL1        0.0001
      8 C           1.7947   28.6544    9.9310 C.ar    1  UNL1        0.0047
      9 C           2.6115   29.7617    9.8133 C.ar    1  UNL1        0.0584
     10 C           2.2767   31.1771    9.6754 C.2     1  UNL1        0.2554
     11 O           1.1429   31.6164    9.6539 O.2     1  UNL1       -0.2695
     12 O           2.3174   37.1562    8.6972 O.2     1  UNL1       -0.2747
     13 C           2.6366   36.0014    8.9637 C.2     1  UNL1        0.2282
     14 C           2.7577   35.5068   10.3871 C.3     1  UNL1        0.0877
     15 C           2.5484   34.0021   10.4715 C.3     1  UNL1        0.0392
     16 C           3.5429   33.3056    9.5466 C.3     1  UNL1        0.1598
     17 C           3.3650   33.7999    8.1073 C.2     1  UNL1        0.2466
     18 O           3.6224   33.1224    7.1140 O.2     1  UNL1       -0.2729
     19 N           2.9728   35.1133    7.9723 N.am    1  UNL1       -0.2540
     20 H           2.8849   35.4532    7.0240 H       1  UNL1        0.1576
@<TRIPOS>BOND
     1    12    13    2
     2    13    14    1
     3    13    19   am
     4    14    15    1
     5    15    16    1
     6    16    17    1
     7    16     1    1
     8     1     2   am
     9     1    10   am
    10     2     3    2
    11     2     4    1
    12     4     5   ar
    13     4     9   ar
    14     5     6   ar
    15     6     7   ar
    16     7     8   ar
    17     8     9   ar
    18     9    10    1
    19    10    11    2
    20    17    18    2
    21    17    19   am
    22    19    20    1
#	Name:			CHEMBL558
#	Creating user name:	trannguyen
#	Creation time:		Tue Feb  8 18:26:14 2022


#	Modifying user name:	trannguyen
#	Modification time:	Tue Feb  8 18:26:14 2022

@<TRIPOS>MOLECULE
CHEMBL558
 15 15 0 0 0
SMALL
GASTEIGER

@<TRIPOS>ATOM
      1 C           6.3004   30.5584   10.4615 C.3     1  UNL1        0.0342
      2 C           5.3629   30.9705    9.3758 C.ar    1  UNL1        0.0118
      3 C           5.8870   31.6878    8.2882 C.ar    1  UNL1       -0.0013
      4 C           5.0571   32.2599    7.3401 C.ar    1  UNL1       -0.0004
      5 C           3.6807   32.1400    7.4835 C.ar    1  UNL1       -0.0013
      6 C           3.1209   31.4345    8.5573 C.ar    1  UNL1        0.0118
      7 C           1.6168   31.4443    8.7034 C.3     1  UNL1        0.0342
      8 C           3.9639   30.8021    9.4743 C.ar    1  UNL1        0.1305
      9 O           3.4607   30.1241   10.5618 O.3     1  UNL1       -0.4747
     10 C           3.1755   28.7391   10.2714 C.3     1  UNL1        0.2206
     11 C           2.0180   28.1975   11.1598 C.3     1  UNL1        0.0951
     12 C           0.6256   28.5145   10.6134 C.3     1  UNL1        0.0208
     13 N           2.1307   26.7395   11.3573 N.3     1  UNL1       -0.3192
     14 H           1.9636   26.2628   10.4700 H       1  UNL1        0.1189
     15 H           1.3781   26.4248   11.9726 H       1  UNL1        0.1189
@<TRIPOS>BOND
     1     1     2    1
     2     2     3   ar
     3     2     8   ar
     4     3     4   ar
     5     4     5   ar
     6     5     6   ar
     7     6     7    1
     8     6     8   ar
     9     8     9    1
    10     9    10    1
    11    10    11    1
    12    11    12    1
    13    11    13    1
    14    13    14    1
    15    13    15    1
#	Name:			CHEMBL559147
#	Creating user name:	trannguyen
#	Creation time:		Tue Feb  8 18:26:14 2022


#	Modifying user name:	trannguyen
#	Modification time:	Tue Feb  8 18:26:14 2022

@<TRIPOS>MOLECULE
CHEMBL559147
 21 22 0 0 0
SMALL
GASTEIGER

@<TRIPOS>ATOM
      1 C           6.7921   31.8258    3.6568 C.3     1  UNL1        0.0142
      2 C           6.6712   33.2397    4.2610 C.3     1  UNL1        0.0018
      3 C           5.2797   33.8782    4.1536 C.3     1  UNL1        0.0091
      4 C           4.1380   32.9449    4.5895 C.3     1  UNL1        0.0768
      5 C           4.2516   31.5830    3.8951 C.3     1  UNL1        0.0091
      6 C           5.6176   30.9446    4.1121 C.3     1  UNL1        0.0018
      7 C           8.2071   32.7984    1.7474 C.3     1  UNL1        0.0168
      8 C           7.0841   31.8289    2.1273 C.3     1  UNL1        0.0508
      9 N           7.4040   30.5166    1.5669 N.3     1  UNL1       -0.3222
     10 H           7.6931   30.6197    0.5942 H       1  UNL1        0.1188
     11 H           6.5524   29.9561    1.5316 H       1  UNL1        0.1188
     12 C           4.0772   32.8214    6.1196 C.2     1  UNL1        0.2256
     13 O           4.7311   33.5596    6.8458 O.2     1  UNL1       -0.2748
     14 N           3.1959   31.8431    6.5566 N.am    1  UNL1       -0.2838
     15 H           2.6767   31.3375    5.8509 H       1  UNL1        0.1549
     16 C           2.9486   31.4675    7.8937 C.ar    1  UNL1        0.0534
     17 C           1.7770   31.7788    8.5748 C.ar    1  UNL1        0.0353
     18 C           1.6381   31.3555    9.8847 C.ar    1  UNL1        0.1002
     19 N           2.5769   30.6541   10.5516 N.ar    1  UNL1       -0.2422
     20 C           3.7067   30.3667    9.8744 C.ar    1  UNL1        0.1002
     21 C           3.9395   30.7477    8.5618 C.ar    1  UNL1        0.0353
@<TRIPOS>BOND
     1     7     8    1
     2     8     9    1
     3     8     1    1
     4     9    10    1
     5     9    11    1
     6     1     2    1
     7     1     6    1
     8     2     3    1
     9     3     4    1
    10     4    12    1
    11     4     5    1
    12    12    13    2
    13    12    14   am
    14    14    16    1
    15    14    15    1
    16    16    17   ar
    17    16    21   ar
    18    17    18   ar
    19    18    19   ar
    20    19    20   ar
    21    20    21   ar
    22     5     6    1
#	Name:			CHEMBL55
#	Creating user name:	trannguyen
#	Creation time:		Tue Feb  8 18:26:14 2022


#	Modifying user name:	trannguyen
#	Modification time:	Tue Feb  8 18:26:14 2022

@<TRIPOS>MOLECULE
CHEMBL55
 31 32 0 0 0
SMALL
GASTEIGER

@<TRIPOS>ATOM
      1 C           7.3160   31.9178    6.6601 C.3     1  UNL1        0.0077
      2 C           7.9460   31.0330    7.7436 C.3     1  UNL1        0.0475
      3 C           7.1643   31.1142    9.0590 C.3     1  UNL1        0.2054
      4 O           5.7936   31.4894    8.8202 O.3     1  UNL1       -0.4755
      5 C           2.8381   29.0164   10.3956 C.ar    1  UNL1        0.0815
      6 C           2.4977   30.2256    9.7798 C.ar    1  UNL1        0.0105
      7 C           3.5051   31.0752    9.2997 C.ar    1  UNL1        0.0371
      8 C           4.8495   30.7062    9.4313 C.ar    1  UNL1        0.1386
      9 C           5.1722   29.5687   10.1681 C.ar    1  UNL1        0.0371
     10 C           4.1781   28.7103   10.6256 C.ar    1  UNL1        0.0105
     11 N           2.1421   26.7997   11.0073 N.2     1  UNL1       -0.0994
     12 C           1.8010   28.0217   10.7852 C.2     1  UNL1        0.3093
     13 N           0.4880   28.3989   10.8626 N.pl3   1  UNL1       -0.2466
     14 H           1.3227   26.2547   11.2826 H       1  UNL1        0.3633
     15 H          -0.1867   27.6483   10.7916 H       1  UNL1        0.2884
     16 H           0.2255   29.1956   10.2931 H       1  UNL1        0.2884
     17 C           8.2736   32.2142    5.5036 C.3     1  UNL1        0.0475
     18 C           7.8120   33.3818    4.6237 C.3     1  UNL1        0.2054
     19 O           7.0113   32.9207    3.5232 O.3     1  UNL1       -0.4755
     20 C           5.6838   32.7379    3.8312 C.ar    1  UNL1        0.1386
     21 C           5.0485   31.4969    3.8362 C.ar    1  UNL1        0.0371
     22 C           3.7357   31.3741    4.2813 C.ar    1  UNL1        0.0105
     23 C           3.0332   32.5066    4.7235 C.ar    1  UNL1        0.0815
     24 C           3.6346   33.7587    4.6445 C.ar    1  UNL1        0.0105
     25 C           4.9514   33.8815    4.1732 C.ar    1  UNL1        0.0371
     26 C           1.6821   32.3196    5.3276 C.2     1  UNL1        0.3093
     27 N           0.6127   32.1505    4.6242 N.2     1  UNL1       -0.0994
     28 N           1.5181   32.3154    6.6823 N.pl3   1  UNL1       -0.2466
     29 H           0.8297   32.1150    3.6190 H       1  UNL1        0.3633
     30 H           2.0273   33.0274    7.1853 H       1  UNL1        0.2884
     31 H           0.5233   32.3359    6.9005 H       1  UNL1        0.2884
@<TRIPOS>BOND
     1    11    12    2
     2    11    14    1
     3    12    13    1
     4    12     5    1
     5    13    15    1
     6    13    16    1
     7     5     6   ar
     8     5    10   ar
     9     6     7   ar
    10     7     8   ar
    11     8     4    1
    12     8     9   ar
    13     4     3    1
    14     3     2    1
    15     2     1    1
    16     1    17    1
    17    17    18    1
    18    18    19    1
    19    19    20    1
    20    20    21   ar
    21    20    25   ar
    22    21    22   ar
    23    22    23   ar
    24    23    26    1
    25    23    24   ar
    26    26    27    2
    27    26    28    1
    28    27    29    1
    29    28    30    1
    30    28    31    1
    31    24    25   ar
    32     9    10   ar
#	Name:			CHEMBL561
#	Creating user name:	trannguyen
#	Creation time:		Tue Feb  8 18:26:14 2022


#	Modifying user name:	trannguyen
#	Modification time:	Tue Feb  8 18:26:14 2022

@<TRIPOS>MOLECULE
CHEMBL561
 27 29 0 0 0
SMALL
GASTEIGER

@<TRIPOS>ATOM
      1 N           2.6567   31.1199    9.4822 N.ar    1  UNL1       -0.3239
      2 C           2.0818   29.9746   10.0263 C.ar    1  UNL1        0.0856
      3 C           2.7253   28.8739   10.4424 C.ar    1  UNL1        0.1314
      4 C           4.1931   28.8881   10.3214 C.ar    1  UNL1        0.2048
      5 O           4.8489   27.9134   10.6842 O.2     1  UNL1       -0.2862
      6 C           4.8430   30.0913    9.7520 C.ar    1  UNL1        0.0595
      7 C           6.2317   30.0904    9.6377 C.ar    1  UNL1        0.0357
      8 C           6.8855   31.1998    9.1156 C.ar    1  UNL1        0.1557
      9 F           8.2228   31.1105    9.0579 F       1  UNL1       -0.2028
     10 C           6.1986   32.3516    8.6839 C.ar    1  UNL1        0.1050
     11 C           4.7801   32.2737    8.7557 C.ar    1  UNL1        0.1712
     12 F           4.0855   33.2784    8.1950 F       1  UNL1       -0.2013
     13 C           4.0670   31.1836    9.3214 C.ar    1  UNL1        0.0922
     14 N           6.8411   33.5188    8.1668 N.pl3   1  UNL1       -0.3012
     15 C           7.6514   33.3259    6.9392 C.3     1  UNL1        0.1080
     16 C           8.2546   34.6452    6.4262 C.3     1  UNL1        0.0903
     17 N           9.0880   35.3043    7.4414 N.3     1  UNL1       -0.2957
     18 C           8.2477   35.5880    8.6213 C.3     1  UNL1        0.0741
     19 C           9.1254   36.2588    9.6788 C.3     1  UNL1        0.0189
     20 C           7.5542   34.3200    9.2088 C.3     1  UNL1        0.1066
     21 H           9.4517   36.1774    7.0626 H       1  UNL1        0.1233
     22 C           1.9634   27.7256   10.9732 C.2     1  UNL1        0.3427
     23 O           1.1478   27.8239   11.8831 O.2     1  UNL1       -0.2449
     24 O           2.2287   26.5465   10.3733 O.3     1  UNL1       -0.4770
     25 H           2.9003   26.6004    9.6514 H       1  UNL1        0.2954
     26 C           1.3707   33.0946   10.2332 C.3     1  UNL1        0.0265
     27 C           1.8095   32.2477    9.0460 C.3     1  UNL1        0.1062
@<TRIPOS>BOND
     1    26    27    1
     2    27     1    1
     3     1     2   ar
     4     1    13   ar
     5     2     3   ar
     6     3    22    1
     7     3     4   ar
     8    22    23    2
     9    22    24    1
    10    24    25    1
    11     4     5    2
    12     4     6   ar
    13     6     7   ar
    14     6    13   ar
    15     7     8   ar
    16     8     9    1
    17     8    10   ar
    18    10    14    1
    19    10    11   ar
    20    14    15    1
    21    14    20    1
    22    15    16    1
    23    16    17    1
    24    17    18    1
    25    17    21    1
    26    18    19    1
    27    18    20    1
    28    11    12    1
    29    11    13   ar
#	Name:			CHEMBL562
#	Creating user name:	trannguyen
#	Creation time:		Tue Feb  8 18:26:14 2022


#	Modifying user name:	trannguyen
#	Modification time:	Tue Feb  8 18:26:14 2022

@<TRIPOS>MOLECULE
CHEMBL562
 24 26 0 0 0
SMALL
GASTEIGER

@<TRIPOS>ATOM
      1 C           6.5943   32.3417    7.6564 C.2     1  UNL1        0.1622
      2 C           7.9128   32.5688    7.5156 C.2     1  UNL1        0.0738
      3 C           8.8073   32.6260    8.6952 C.2     1  UNL1        0.1761
      4 O           9.9939   32.8996    8.5361 O.2     1  UNL1       -0.2912
      5 C           8.2391   32.2437   10.0409 C.3     1  UNL1        0.0736
      6 C           6.8036   32.7599   10.2027 C.3     1  UNL1        0.0586
      7 C           6.8188   34.2854   10.3745 C.3     1  UNL1        0.0050
      8 C           5.9280   32.2496    9.0277 C.3     1  UNL1        0.2368
      9 O           5.6483   30.8366    9.2775 O.3     1  UNL1       -0.4670
     10 C           4.2860   30.7194    9.4237 C.ar    1  UNL1        0.1586
     11 C           3.6237   29.5316    9.6933 C.ar    1  UNL1        0.1256
     12 CL          4.5224   28.0686    9.8771 Cl      1  UNL1       -0.0759
     13 C           2.2206   29.5487    9.8056 C.ar    1  UNL1        0.1552
     14 C           1.5182   30.7643    9.6644 C.ar    1  UNL1        0.0749
     15 C           2.1951   31.9566    9.3834 C.ar    1  UNL1        0.1476
     16 C           3.5748   31.8938    9.2796 C.ar    1  UNL1        0.1075
     17 C           4.5528   32.9209    9.0006 C.2     1  UNL1        0.2217
     18 O           4.2978   34.0889    8.7712 O.2     1  UNL1       -0.2870
     19 C           5.9859   32.8039    5.3657 C.3     1  UNL1        0.2522
     20 O           5.7128   32.1551    6.6029 O.2     1  UNL1       -0.4717
     21 O           1.6021   28.3637   10.1206 O.3     1  UNL1       -0.4704
     22 C           1.4334   28.0881   11.5071 C.3     1  UNL1        0.2525
     23 O           1.6000   33.1762    9.2677 O.3     1  UNL1       -0.4711
     24 C           1.0513   33.7301   10.4575 C.3     1  UNL1        0.2525
@<TRIPOS>BOND
     1    19    20    1
     2    20     1    1
     3     1     2    2
     4     2     3    1
     5     3     4    2
     6     3     5    1
     7     5     6    1
     8     6     8    1
     9     6     7    1
    10     8     1    1
    11     8     9    1
    12     8    17    1
    13     9    10    1
    14    10    11   ar
    15    10    16   ar
    16    11    12    1
    17    11    13   ar
    18    13    21    1
    19    13    14   ar
    20    21    22    1
    21    14    15   ar
    22    15    23    1
    23    15    16   ar
    24    23    24    1
    25    16    17    1
    26    17    18    2
#	Name:			CHEMBL56337
#	Creating user name:	trannguyen
#	Creation time:		Tue Feb  8 18:26:14 2022


#	Modifying user name:	trannguyen
#	Modification time:	Tue Feb  8 18:26:14 2022

@<TRIPOS>MOLECULE
CHEMBL56337
 22 23 0 0 0
SMALL
GASTEIGER

@<TRIPOS>ATOM
      1 C           6.3330   30.5351   10.1457 C.2     1  UNL1        0.0068
      2 C           5.0446   30.3969    9.8124 C.2     1  UNL1        0.0846
      3 S           3.9759   31.5684    9.1457 S.3     1  UNL1       -0.0604
      4 C           2.5728   30.5251    9.2624 C.2     1  UNL1        0.1217
      5 S           1.0448   31.0580    8.8692 S.2     1  UNL1       -0.0272
      6 N           2.9552   29.2824    9.7272 N.am    1  UNL1       -0.2332
      7 C           4.3047   29.1092    9.9716 C.2     1  UNL1        0.2600
      8 O           4.8222   28.0258   10.1876 O.2     1  UNL1       -0.2690
      9 C           7.9667   31.8954    8.7798 C.3     1  UNL1        0.0310
     10 C           7.1614   31.7431   10.0489 C.2     1  UNL1       -0.0212
     11 C           7.2488   32.6104   11.0759 C.2     1  UNL1       -0.0042
     12 C           7.9314   33.9018   11.0698 C.ar    1  UNL1       -0.0003
     13 C           9.2842   33.9761   11.4026 C.ar    1  UNL1       -0.0000
     14 C           9.9200   35.2159   11.4522 C.ar    1  UNL1       -0.0000
     15 C           9.2038   36.3812   11.1757 C.ar    1  UNL1       -0.0000
     16 C           7.8469   36.3117   10.8617 C.ar    1  UNL1       -0.0000
     17 C           7.2085   35.0728   10.8130 C.ar    1  UNL1       -0.0000
     18 C           2.0596   28.1412    9.8490 C.3     1  UNL1        0.2088
     19 C           1.3456   28.1427   11.1944 C.2     1  UNL1        0.3347
     20 O           1.9172   28.0003   12.2586 O.2     1  UNL1       -0.2484
     21 O          -0.0058   28.2268   11.1106 O.3     1  UNL1       -0.4790
     22 H          -0.3710   28.1879   10.1950 H       1  UNL1        0.2951
@<TRIPOS>BOND
     1     9    10    1
     2    10     1    1
     3    10    11    2
     4     1     2    2
     5     2     3    1
     6     2     7    1
     7     3     4    1
     8     4     5    2
     9     4     6    1
    10     6    18    1
    11     6     7   am
    12    18    19    1
    13    19    20    2
    14    19    21    1
    15    21    22    1
    16     7     8    2
    17    11    12    1
    18    12    13   ar
    19    12    17   ar
    20    13    14   ar
    21    14    15   ar
    22    15    16   ar
    23    16    17   ar
#	Name:			CHEMBL56367
#	Creating user name:	trannguyen
#	Creation time:		Tue Feb  8 18:26:14 2022


#	Modifying user name:	trannguyen
#	Modification time:	Tue Feb  8 18:26:14 2022

@<TRIPOS>MOLECULE
CHEMBL56367
 22 23 0 0 0
SMALL
GASTEIGER

@<TRIPOS>ATOM
      1 C           2.0594   31.2231    8.2976 C.ar    1  UNL1        0.0989
      2 C           0.9069   30.5229    8.6697 C.ar    1  UNL1        0.0205
      3 C           1.0033   29.4163    9.5127 C.ar    1  UNL1        0.0214
      4 C           2.2559   29.0521   10.0251 C.ar    1  UNL1        0.0950
      5 C           3.4095   29.7876    9.7060 C.ar    1  UNL1        0.0587
      6 C           3.3246   30.8413    8.7893 C.ar    1  UNL1        0.1612
      7 N           2.3727   27.8448   10.8544 N.pl3   1  UNL1       -0.1852
      8 O           2.7882   26.8117   10.3106 O.2     1  UNL1       -0.1725
      9 O           2.0800   27.9396   12.0539 O.co2   1  UNL1       -0.7770
     10 N           1.9038   32.3549    7.4325 N.pl3   1  UNL1       -0.2157
     11 H           1.0376   32.8755    7.6047 H       1  UNL1        0.1735
     12 C           3.0817   33.3676    5.2173 C.3     1  UNL1        0.1996
     13 S           1.9915   32.0682    5.7622 S.O2    1  UNL1        0.0559
     14 O           0.6741   32.3638    5.2500 O.2     1  UNL1       -0.1544
     15 O           2.6286   30.7904    5.5152 O.2     1  UNL1       -0.1544
     16 O           4.4085   31.5769    8.3521 O.3     1  UNL1       -0.4522
     17 C           5.1930   32.2947    9.2302 C.ar    1  UNL1        0.1454
     18 C           6.4057   31.8561    9.7694 C.ar    1  UNL1        0.0375
     19 C           7.1134   32.6711   10.6621 C.ar    1  UNL1        0.0031
     20 C           6.6479   33.9493   10.9687 C.ar    1  UNL1        0.0002
     21 C           5.4841   34.4222   10.3675 C.ar    1  UNL1        0.0031
     22 C           4.7583   33.5955    9.5047 C.ar    1  UNL1        0.0375
@<TRIPOS>UNITY_ATOM_ATTR
9 1
charge -1
@<TRIPOS>BOND
     1    12    13    1
     2    13    14    2
     3    13    15    2
     4    13    10    1
     5    10     1    1
     6    10    11    1
     7     1     2   ar
     8     1     6   ar
     9     2     3   ar
    10     3     4   ar
    11     4     7    1
    12     4     5   ar
    13     7     8    2
    14     7     9    1
    15     5     6   ar
    16     6    16    1
    17    16    17    1
    18    17    18   ar
    19    17    22   ar
    20    18    19   ar
    21    19    20   ar
    22    20    21   ar
    23    21    22   ar
#	Name:			CHEMBL563
#	Creating user name:	trannguyen
#	Creation time:		Tue Feb  8 18:26:14 2022


#	Modifying user name:	trannguyen
#	Modification time:	Tue Feb  8 18:26:14 2022

@<TRIPOS>MOLECULE
CHEMBL563
 19 20 0 0 0
SMALL
GASTEIGER

@<TRIPOS>ATOM
      1 C           3.3480   29.8804   10.1147 C.ar    1  UNL1       -0.0097
      2 C           4.4842   29.1707   10.5193 C.ar    1  UNL1       -0.0036
      3 C           5.7694   29.6007   10.1542 C.ar    1  UNL1        0.0019
      4 C           5.9781   30.7504    9.3678 C.ar    1  UNL1        0.0275
      5 C           4.8205   31.4382    8.9643 C.ar    1  UNL1        0.1398
      6 F           4.9068   32.5570    8.2276 F       1  UNL1       -0.2042
      7 C           3.5340   31.0145    9.3175 C.ar    1  UNL1        0.0259
      8 C           7.3490   31.1880    8.9901 C.ar    1  UNL1        0.0022
      9 C           8.1053   32.0435    9.8165 C.ar    1  UNL1        0.0001
     10 C           9.4013   32.4469    9.4715 C.ar    1  UNL1        0.0000
     11 C           9.9724   32.0159    8.2799 C.ar    1  UNL1        0.0000
     12 C           9.2513   31.1758    7.4399 C.ar    1  UNL1        0.0000
     13 C           7.9621   30.7623    7.7966 C.ar    1  UNL1        0.0001
     14 C           1.0205   29.4658    9.2697 C.3     1  UNL1        0.0164
     15 C           1.9419   29.4376   10.4904 C.3     1  UNL1        0.1212
     16 C           1.8921   28.0733   11.1788 C.2     1  UNL1        0.3174
     17 O           1.9172   27.8963   12.3854 O.2     1  UNL1       -0.2499
     18 O           1.8464   27.0326   10.3089 O.3     1  UNL1       -0.4800
     19 H           1.8007   27.3056    9.3716 H       1  UNL1        0.2951
@<TRIPOS>BOND
     1    14    15    1
     2    15    16    1
     3    15     1    1
     4    16    17    2
     5    16    18    1
     6    18    19    1
     7     1     2   ar
     8     1     7   ar
     9     2     3   ar
    10     3     4   ar
    11     4     8    1
    12     4     5   ar
    13     8     9   ar
    14     8    13   ar
    15     9    10   ar
    16    10    11   ar
    17    11    12   ar
    18    12    13   ar
    19     5     6    1
    20     5     7   ar
#	Name:			CHEMBL564201
#	Creating user name:	trannguyen
#	Creation time:		Tue Feb  8 18:26:14 2022


#	Modifying user name:	trannguyen
#	Modification time:	Tue Feb  8 18:26:14 2022

@<TRIPOS>MOLECULE
CHEMBL564201
 21 22 0 0 0
SMALL
GASTEIGER

@<TRIPOS>ATOM
      1 C1*         1.6799   31.7530    8.6058 C.3     1  UNL1        0.2555
      2 O4*         1.2826   31.5506    7.2284 O.3     1  UNL1       -0.3298
      3 C4*         2.3307   32.0609    6.3793 C.3     1  UNL1        0.1757
      4 C3*         3.5640   32.2685    7.2550 C.3     1  UNL1        0.1713
      5 O3*         4.4062   33.3173    6.7829 O.3     1  UNL1       -0.3794
      6 C2*         2.9548   32.6094    8.6023 C.3     1  UNL1        0.1910
      7 O2*         2.6448   34.0164    8.6285 O.3     1  UNL1       -0.3779
      8 H3*         3.8561   34.1257    6.7734 H       1  UNL1        0.2105
      9 H2*         3.4583   34.4710    8.9173 H       1  UNL1        0.2106
     10 O           2.4218   26.9433   11.0284 O.2     1  UNL1       -0.2653
     11 C           2.2044   27.9988   10.4631 C.ar    1  UNL1        0.2821
     12 C           3.3216   28.9673   10.2348 C.ar    1  UNL1        0.1808
     13 N           3.1511   30.1249    9.6836 N.ar    1  UNL1       -0.1569
     14 N           1.8740   30.4489    9.2515 N.ar    1  UNL1       -0.1738
     15 C           0.7593   29.6401    9.4505 C.ar    1  UNL1        0.3483
     16 O          -0.3884   29.9686    9.1569 O.2     1  UNL1       -0.2449
     17 N           0.9884   28.4220   10.0214 N.ar    1  UNL1       -0.2719
     18 H           0.1926   27.8215   10.1701 H       1  UNL1        0.1735
     19 C5*         2.5816   31.0785    5.2339 C.3     1  UNL1        0.1693
     20 O5*         3.7392   31.4592    4.4877 O.3     1  UNL1       -0.3794
     21 H5*         3.6382   32.4116    4.2977 H       1  UNL1        0.2105
@<TRIPOS>BOND
     1    10    11    2
     2    11    12   ar
     3    11    17   ar
     4    12    13   ar
     5    13    14   ar
     6    14    15   ar
     7     1     2    1
     8     1     6    1
     9     1    14    1
    10     2     3    1
    11     3    19    1
    12     3     4    1
    13    19    20    1
    14    20    21    1
    15     4     6    1
    16     4     5    1
    17     5     8    1
    18     6     7    1
    19     7     9    1
    20    15    16    2
    21    15    17   ar
    22    17    18    1
#	Name:			CHEMBL564
#	Creating user name:	trannguyen
#	Creation time:		Tue Feb  8 18:26:14 2022


#	Modifying user name:	trannguyen
#	Modification time:	Tue Feb  8 18:26:14 2022

@<TRIPOS>MOLECULE
CHEMBL564
 20 22 0 0 0
SMALL
GASTEIGER

@<TRIPOS>ATOM
      1 N           2.4163   32.5412    7.8011 N.pl3   1  UNL1       -0.2861
      2 C           3.1841   33.2897    8.7377 C.ar    1  UNL1        0.0576
      3 C           2.5476   33.9858    9.7860 C.ar    1  UNL1        0.0153
      4 C           3.2908   34.6760   10.7585 C.ar    1  UNL1        0.0013
      5 C           4.6754   34.7089   10.6865 C.ar    1  UNL1        0.0006
      6 C           5.3192   34.0967    9.6172 C.ar    1  UNL1        0.0077
      7 C           4.5810   33.4072    8.6354 C.ar    1  UNL1        0.0431
      8 S           5.5215   32.6751    7.3117 S.3     1  UNL1       -0.0844
      9 C           4.2375   32.2675    6.1460 C.ar    1  UNL1        0.0431
     10 C           4.6532   31.9408    4.8419 C.ar    1  UNL1        0.0077
     11 C           3.7275   31.5552    3.8752 C.ar    1  UNL1        0.0006
     12 C           2.3820   31.5074    4.1964 C.ar    1  UNL1        0.0013
     13 C           1.9589   31.8426    5.4888 C.ar    1  UNL1        0.0153
     14 C           2.8801   32.2011    6.4961 C.ar    1  UNL1        0.0576
     15 C           1.5540   31.4856    8.4135 C.3     1  UNL1        0.0970
     16 C           2.3564   30.2739    8.9212 C.3     1  UNL1        0.0391
     17 C           2.1750   30.0329   10.4316 C.3     1  UNL1        0.0739
     18 C           2.3116   27.6575   10.9473 C.3     1  UNL1        0.0897
     19 N           3.0040   28.9482   10.9914 N.3     1  UNL1       -0.2703
     20 C           4.2765   28.8542   10.2673 C.3     1  UNL1        0.0897
@<TRIPOS>BOND
     1    18    19    1
     2    19    20    1
     3    19    17    1
     4    17    16    1
     5    16    15    1
     6    15     1    1
     7     1     2    1
     8     1    14    1
     9     2     3   ar
    10     2     7   ar
    11     3     4   ar
    12     4     5   ar
    13     5     6   ar
    14     6     7   ar
    15     7     8    1
    16     8     9    1
    17     9    10   ar
    18     9    14   ar
    19    10    11   ar
    20    11    12   ar
    21    12    13   ar
    22    13    14   ar
#	Name:			CHEMBL56564
#	Creating user name:	trannguyen
#	Creation time:		Tue Feb  8 18:26:14 2022


#	Modifying user name:	trannguyen
#	Modification time:	Tue Feb  8 18:26:14 2022

@<TRIPOS>MOLECULE
CHEMBL56564
 22 25 0 0 0
SMALL
GASTEIGER

@<TRIPOS>ATOM
      1 C           2.7166   32.6649    8.1071 C.2     1  UNL1        0.3426
      2 O           3.3364   33.5340    8.7063 O.2     1  UNL1       -0.2448
      3 C           2.0381   31.5603    8.7729 C.ar    1  UNL1        0.0939
      4 C           0.6737   31.4369    8.9775 C.ar    1  UNL1        0.0789
      5 N           0.4370   30.2574    9.6300 N.ar    1  UNL1       -0.3518
      6 H          -0.4732   29.9141    9.9047 H       1  UNL1        0.1660
      7 C           1.6195   29.5943    9.8587 C.ar    1  UNL1        0.0569
      8 C           1.8571   28.3627   10.4814 C.ar    1  UNL1        0.0170
      9 C           3.1822   27.9269   10.5756 C.ar    1  UNL1        0.0015
     10 C           4.2269   28.6948   10.0693 C.ar    1  UNL1        0.0001
     11 C           3.9713   29.9230    9.4504 C.ar    1  UNL1        0.0017
     12 C           2.6430   30.3878    9.3375 C.ar    1  UNL1        0.0233
     13 O           2.5973   32.6132    6.7417 O.3     1  UNL1       -0.4491
     14 C           5.5073   33.6121    3.1189 C.3     1  UNL1        0.0896
     15 N           4.4049   32.6685    3.1977 N.3     1  UNL1       -0.2738
     16 C           3.0891   33.2427    3.4929 C.3     1  UNL1        0.0611
     17 C           2.2369   31.9718    3.5583 C.3     1  UNL1        0.0175
     18 C           3.2043   30.8850    4.0312 C.3     1  UNL1        0.0175
     19 C           4.5448   31.6082    4.1992 C.3     1  UNL1        0.0611
     20 C           4.7184   32.1668    5.6195 C.3     1  UNL1        0.0596
     21 C           3.6761   33.2326    6.0076 C.3     1  UNL1        0.1718
     22 C           3.0693   34.0084    4.8247 C.3     1  UNL1        0.0596
@<TRIPOS>BOND
     1    14    15    1
     2    15    16    1
     3    15    19    1
     4    16    17    1
     5    16    22    1
     6    17    18    1
     7    18    19    1
     8    19    20    1
     9    20    21    1
    10    21    22    1
    11    21    13    1
    12    13     1    1
    13     1     2    2
    14     1     3    1
    15     3     4   ar
    16     3    12   ar
    17     4     5   ar
    18     5     6    1
    19     5     7   ar
    20     7     8   ar
    21     7    12   ar
    22     8     9   ar
    23     9    10   ar
    24    10    11   ar
    25    11    12   ar
#	Name:			CHEMBL565
#	Creating user name:	trannguyen
#	Creation time:		Tue Feb  8 18:26:14 2022


#	Modifying user name:	trannguyen
#	Modification time:	Tue Feb  8 18:26:14 2022

@<TRIPOS>MOLECULE
CHEMBL565
 16 16 0 0 0
SMALL
GASTEIGER

@<TRIPOS>ATOM
      1 C           1.3866   31.5714    8.9064 C.3     1  UNL1        0.2212
      2 C           0.4919   30.3564    9.2213 C.3     1  UNL1        0.0553
      3 C           0.8704   32.7541    9.7432 C.3     1  UNL1        0.0553
      4 C           2.7916   31.1273    9.4113 C.2     1  UNL1        0.3535
      5 O           3.6395   31.8906    9.8527 O.2     1  UNL1       -0.2462
      6 O           2.9310   29.7720    9.3260 O.3     1  UNL1       -0.4461
      7 C           4.1228   27.7169    9.9404 C.3     1  UNL1        0.0513
      8 C           3.7197   29.1296   10.3338 C.3     1  UNL1        0.2087
      9 O           1.1313   31.8615    7.5289 O.3     1  UNL1       -0.4720
     10 C           2.1590   32.0216    6.6483 C.ar    1  UNL1        0.1390
     11 C           3.1615   32.9879    6.7256 C.ar    1  UNL1        0.0378
     12 C           4.2042   32.9889    5.7918 C.ar    1  UNL1        0.0145
     13 C           4.2257   32.0415    4.7701 C.ar    1  UNL1        0.0579
     14 CL          5.5314   32.0175    3.6505 Cl      1  UNL1       -0.0822
     15 C           3.1944   31.1151    4.6487 C.ar    1  UNL1        0.0145
     16 C           2.1582   31.1149    5.5847 C.ar    1  UNL1        0.0378
@<TRIPOS>BOND
     1     7     8    1
     2     8     6    1
     3     6     4    1
     4     4     5    2
     5     4     1    1
     6     1     2    1
     7     1     3    1
     8     1     9    1
     9     9    10    1
    10    10    11   ar
    11    10    16   ar
    12    11    12   ar
    13    12    13   ar
    14    13    14    1
    15    13    15   ar
    16    15    16   ar
#	Name:			CHEMBL566534
#	Creating user name:	trannguyen
#	Creation time:		Tue Feb  8 18:26:14 2022


#	Modifying user name:	trannguyen
#	Modification time:	Tue Feb  8 18:26:14 2022

@<TRIPOS>MOLECULE
CHEMBL566534
 21 24 0 0 0
SMALL
GASTEIGER

@<TRIPOS>ATOM
      1 C           2.9007   32.6391    5.6191 C.3     1  UNL1        0.2370
      2 O           2.5842   31.3483    6.1406 O.3     1  UNL1       -0.3038
      3 C           2.0213   31.4663    7.4410 C.3     1  UNL1        0.2675
      4 O           1.4513   30.2287    7.8339 O.3     1  UNL1       -0.3056
      5 C           1.1402   30.2708    9.2286 C.3     1  UNL1        0.2211
      6 C          -0.2535   29.6563    9.3688 C.3     1  UNL1        0.0643
      7 C           2.1567   29.4026    9.9705 C.3     1  UNL1        0.0593
      8 C           3.5702   29.9745   10.0843 C.3     1  UNL1        0.0077
      9 C           4.0941   30.8307    8.8968 C.3     1  UNL1        0.0331
     10 C           5.5067   31.4175    9.2356 C.3     1  UNL1        0.0025
     11 C           6.4001   30.5235   10.1034 C.3     1  UNL1        0.0001
     12 C           5.4057   32.8160    9.8428 C.3     1  UNL1        0.0002
     13 C           4.7959   33.8228    8.8708 C.3     1  UNL1        0.0028
     14 C           3.6969   33.2562    7.9533 C.3     1  UNL1        0.0378
     15 C           4.0694   33.2368    6.4354 C.3     1  UNL1        0.0591
     16 C           5.3811   32.5311    6.0720 C.3     1  UNL1        0.0053
     17 C           3.0607   31.9435    8.4842 C.3     1  UNL1        0.1782
     18 O           2.3595   32.2824    9.7126 O.3     1  UNL1       -0.2184
     19 O           1.0438   31.6114    9.7427 O.3     1  UNL1       -0.1973
     20 C           2.2722   31.7564    3.5047 C.3     1  UNL1        0.1768
     21 O           3.2322   32.4997    4.2398 O.3     1  UNL1       -0.3278
@<TRIPOS>BOND
     1    20    21    1
     2     1     2    1
     3     1    15    1
     4     1    21    1
     5     2     3    1
     6     3     4    1
     7     3    17    1
     8     4     5    1
     9     5     6    1
    10     5     7    1
    11     5    19    1
    12     7     8    1
    13     8     9    1
    14     9    10    1
    15     9    17    1
    16    10    11    1
    17    10    12    1
    18    12    13    1
    19    13    14    1
    20    14    15    1
    21    14    17    1
    22    15    16    1
    23    17    18    1
    24    18    19    1
#	Name:			CHEMBL567597
#	Creating user name:	trannguyen
#	Creation time:		Tue Feb  8 18:26:14 2022


#	Modifying user name:	trannguyen
#	Modification time:	Tue Feb  8 18:26:14 2022

@<TRIPOS>MOLECULE
CHEMBL567597
 20 23 0 0 0
SMALL
GASTEIGER

@<TRIPOS>ATOM
      1 C           3.4006   33.8837    4.8824 C.3     1  UNL1        0.0001
      2 C           3.9112   32.4322    4.9920 C.3     1  UNL1        0.0026
      3 C           2.7091   31.4927    4.9687 C.3     1  UNL1        0.0002
      4 C           1.8619   31.6428    6.2269 C.3     1  UNL1        0.0032
      5 C           2.7184   31.3528    7.4543 C.3     1  UNL1        0.0447
      6 C           1.9495   31.2642    8.7953 C.3     1  UNL1        0.1017
      7 C           0.7092   30.3667    8.7160 C.3     1  UNL1        0.0117
      8 C           2.8598   30.6072    9.8281 C.2     1  UNL1        0.3184
      9 O           2.4928   30.2550   10.9480 O.2     1  UNL1       -0.2501
     10 O           4.1230   30.3815    9.3730 O.3     1  UNL1       -0.4217
     11 C           4.6446   31.6180    8.9128 C.3     1  UNL1        0.3202
     12 O           6.0214   31.6006    8.7701 O.3     1  UNL1       -0.2956
     13 C           6.4124   32.9575    8.5390 C.3     1  UNL1        0.2221
     14 C           7.3222   33.2365    9.7359 C.3     1  UNL1        0.0643
     15 C           7.1336   32.9415    7.2041 C.3     1  UNL1        0.0593
     16 C           6.1257   32.9735    6.0587 C.3     1  UNL1        0.0078
     17 C           4.8477   32.0901    6.2209 C.3     1  UNL1        0.0344
     18 C           4.0599   32.1602    7.5948 C.3     1  UNL1        0.1910
     19 O           4.0259   33.5615    7.8875 O.3     1  UNL1       -0.2171
     20 O           5.3603   33.9884    8.5238 O.3     1  UNL1       -0.1972
@<TRIPOS>BOND
     1     1     2    1
     2     2     3    1
     3     2    17    1
     4     3     4    1
     5     4     5    1
     6     5     6    1
     7     5    18    1
     8     6     7    1
     9     6     8    1
    10     8     9    2
    11     8    10    1
    12    10    11    1
    13    11    12    1
    14    11    18    1
    15    12    13    1
    16    13    14    1
    17    13    15    1
    18    13    20    1
    19    15    16    1
    20    16    17    1
    21    17    18    1
    22    18    19    1
    23    19    20    1
#	Name:			CHEMBL567
#	Creating user name:	trannguyen
#	Creation time:		Tue Feb  8 18:26:14 2022


#	Modifying user name:	trannguyen
#	Modification time:	Tue Feb  8 18:26:14 2022

@<TRIPOS>MOLECULE
CHEMBL567
 28 31 0 0 0
SMALL
GASTEIGER

@<TRIPOS>ATOM
      1 N           4.7837   32.6193    7.5413 N.pl3   1  UNL1       -0.2860
      2 C           3.4972   32.3429    8.0998 C.ar    1  UNL1        0.0576
      3 C           3.1784   32.6039    9.4513 C.ar    1  UNL1        0.0153
      4 C           1.9311   32.3075   10.0145 C.ar    1  UNL1        0.0013
      5 C           0.9401   31.7303    9.2359 C.ar    1  UNL1        0.0006
      6 C           1.2038   31.4811    7.8985 C.ar    1  UNL1        0.0077
      7 C           2.4544   31.7894    7.3254 C.ar    1  UNL1        0.0431
      8 S           2.5948   31.4027    5.6017 S.3     1  UNL1       -0.0844
      9 C           4.2349   31.9494    5.2136 C.ar    1  UNL1        0.0431
     10 C           4.5992   31.7877    3.8603 C.ar    1  UNL1        0.0086
     11 C           5.8590   32.1481    3.4063 C.ar    1  UNL1        0.0120
     12 C           6.7528   32.6952    4.3103 C.ar    1  UNL1        0.0589
     13 CL          8.3287   33.1478    3.7762 Cl      1  UNL1       -0.0822
     14 C           6.3980   32.8717    5.6545 C.ar    1  UNL1        0.0267
     15 C           5.1385   32.4816    6.1644 C.ar    1  UNL1        0.0585
     16 C           5.8843   32.8703    8.5167 C.3     1  UNL1        0.0970
     17 C           6.6200   31.5720    8.8741 C.3     1  UNL1        0.0391
     18 C           7.9852   31.8245    9.5398 C.3     1  UNL1        0.0739
     19 N          11.6423   30.7806    9.4121 N.3     1  UNL1       -0.2682
     20 C          11.1717   32.0586   10.0030 C.3     1  UNL1        0.0897
     21 C          10.1665   32.8788    9.1427 C.3     1  UNL1        0.0897
     22 N           9.0448   32.1087    8.5513 N.3     1  UNL1       -0.2703
     23 C           9.6056   30.8952    7.9227 C.3     1  UNL1        0.0897
     24 C          10.4739   30.0531    8.8807 C.3     1  UNL1        0.0897
     25 C          12.6875   31.0221    8.3954 C.3     1  UNL1        0.1043
     26 O          13.5251   28.7563    8.6477 O.3     1  UNL1       -0.3805
     27 C          13.9275   30.1174    8.5158 C.3     1  UNL1        0.1544
     28 H          14.3338   28.2430    8.8203 H       1  UNL1        0.2105
@<TRIPOS>BOND
     1    26    27    1
     2    26    28    1
     3    27    25    1
     4    25    19    1
     5    19    20    1
     6    19    24    1
     7    20    21    1
     8    21    22    1
     9    22    18    1
    10    22    23    1
    11    18    17    1
    12    17    16    1
    13    16     1    1
    14     1     2    1
    15     1    15    1
    16     2     3   ar
    17     2     7   ar
    18     3     4   ar
    19     4     5   ar
    20     5     6   ar
    21     6     7   ar
    22     7     8    1
    23     8     9    1
    24     9    10   ar
    25     9    15   ar
    26    10    11   ar
    27    11    12   ar
    28    12    13    1
    29    12    14   ar
    30    14    15   ar
    31    23    24    1
#	Name:			CHEMBL569
#	Creating user name:	trannguyen
#	Creation time:		Tue Feb  8 18:26:14 2022


#	Modifying user name:	trannguyen
#	Modification time:	Tue Feb  8 18:26:14 2022

@<TRIPOS>MOLECULE
CHEMBL569
 19 19 0 0 0
SMALL
GASTEIGER

@<TRIPOS>ATOM
      1 C           4.5388   30.5652    9.5847 C.2     1  UNL1        0.3412
      2 O           5.5413   29.8842    9.6086 O.2     1  UNL1       -0.2449
      3 C           3.1645   30.0118    9.7034 C.ar    1  UNL1        0.0757
      4 C           2.9699   28.9151   10.5483 C.ar    1  UNL1        0.0077
      5 C           1.6839   28.4033   10.7412 C.ar    1  UNL1        0.0143
      6 C           0.5925   28.9448   10.0580 C.ar    1  UNL1        0.0415
      7 N          -0.7048   28.5138   10.3537 N.pl3   1  UNL1       -0.3570
      8 C           0.7876   30.0714    9.2556 C.ar    1  UNL1        0.0143
      9 C           2.0679   30.5903    9.0565 C.ar    1  UNL1        0.0077
     10 H          -0.7501   27.5472   10.6606 H       1  UNL1        0.1424
     11 H          -1.3749   28.7129    9.6172 H       1  UNL1        0.1424
     12 O           4.4858   31.9176    9.4865 O.3     1  UNL1       -0.4439
     13 C           5.0174   32.4741    8.2731 C.3     1  UNL1        0.2260
     14 C           3.9074   33.0728    7.3933 C.3     1  UNL1        0.1202
     15 N           3.7096   32.3682    6.1142 N.3     1  UNL1       -0.2696
     16 C           1.8585   33.2911    4.5847 C.3     1  UNL1        0.0188
     17 C           2.3008   32.3190    5.6781 C.3     1  UNL1        0.0722
     18 C           4.6262   32.8946    5.0928 C.3     1  UNL1        0.0722
     19 C           5.1862   31.7884    4.2079 C.3     1  UNL1        0.0188
@<TRIPOS>BOND
     1    16    17    1
     2    17    15    1
     3    15    18    1
     4    15    14    1
     5    18    19    1
     6    14    13    1
     7    13    12    1
     8    12     1    1
     9     1     2    2
    10     1     3    1
    11     3     4   ar
    12     3     9   ar
    13     4     5   ar
    14     5     6   ar
    15     6     7    1
    16     6     8   ar
    17     7    10    1
    18     7    11    1
    19     8     9   ar
#	Name:			CHEMBL571
#	Creating user name:	trannguyen
#	Creation time:		Tue Feb  8 18:26:14 2022


#	Modifying user name:	trannguyen
#	Modification time:	Tue Feb  8 18:26:14 2022

@<TRIPOS>MOLECULE
CHEMBL571
 20 21 0 0 0
SMALL
GASTEIGER

@<TRIPOS>ATOM
      1 C           3.2903   29.7250   10.0285 C.ar    1  UNL1       -0.0119
      2 C           4.6112   29.4722   10.4289 C.ar    1  UNL1       -0.0037
      3 C           5.6677   30.2321    9.9247 C.ar    1  UNL1       -0.0002
      4 C           5.4271   31.2545    9.0069 C.ar    1  UNL1        0.0032
      5 C           4.1212   31.5355    8.5970 C.ar    1  UNL1        0.0387
      6 C           3.0579   30.7618    9.1023 C.ar    1  UNL1       -0.0006
      7 C           0.8422   29.1187    9.7933 C.3     1  UNL1        0.0164
      8 C           2.1352   28.9031   10.5899 C.3     1  UNL1        0.1211
      9 C           2.4487   27.4056   10.6654 C.2     1  UNL1        0.3174
     10 O           2.8840   26.7348    9.7455 O.2     1  UNL1       -0.2499
     11 O           2.1515   26.8512   11.8686 O.3     1  UNL1       -0.4800
     12 H           1.8221   27.4869   12.5265 H       1  UNL1        0.2951
     13 C           3.8382   32.5912    7.5811 C.2     1  UNL1        0.1955
     14 O           3.9385   33.7694    7.9183 O.2     1  UNL1       -0.2866
     15 C           3.4120   32.2731    6.1856 C.ar    1  UNL1        0.0390
     16 C           4.3252   31.9745    5.1654 C.ar    1  UNL1        0.0032
     17 C           3.8664   31.6621    3.8801 C.ar    1  UNL1        0.0001
     18 C           2.5003   31.6746    3.5994 C.ar    1  UNL1        0.0000
     19 C           1.5893   32.0111    4.5986 C.ar    1  UNL1        0.0001
     20 C           2.0429   32.3123    5.8858 C.ar    1  UNL1        0.0032
@<TRIPOS>BOND
     1     7     8    1
     2     8     9    1
     3     8     1    1
     4     9    10    2
     5     9    11    1
     6    11    12    1
     7     1     2   ar
     8     1     6   ar
     9     2     3   ar
    10     3     4   ar
    11     4     5   ar
    12     5    13    1
    13     5     6   ar
    14    13    14    2
    15    13    15    1
    16    15    16   ar
    17    15    20   ar
    18    16    17   ar
    19    17    18   ar
    20    18    19   ar
    21    19    20   ar
#	Name:			CHEMBL572
#	Creating user name:	trannguyen
#	Creation time:		Tue Feb  8 18:26:14 2022


#	Modifying user name:	trannguyen
#	Modification time:	Tue Feb  8 18:26:14 2022

@<TRIPOS>MOLECULE
CHEMBL572
 18 19 0 0 0
SMALL
GASTEIGER

@<TRIPOS>ATOM
      1 N           2.3768   33.0616   10.5492 N.2     1  UNL1       -0.1692
      2 C           2.2987   32.1502    9.6345 C.2     1  UNL1        0.1553
      3 O          -0.7399   36.6220   10.3266 O.2     1  UNL1       -0.2727
      4 C           0.2792   35.9490   10.2212 C.2     1  UNL1        0.2518
      5 C           0.4396   34.5149   10.6765 C.3     1  UNL1        0.2056
      6 N           1.8123   34.2816   10.3066 N.am    1  UNL1       -0.1553
      7 C           2.3919   35.4086    9.6981 C.2     1  UNL1        0.3292
      8 O           3.5150   35.5388    9.2459 O.2     1  UNL1       -0.2504
      9 N           1.4467   36.3857    9.6801 N.am    1  UNL1       -0.2367
     10 H           1.5936   37.3061    9.3020 H       1  UNL1        0.1592
     11 C           2.8850   30.8581    9.8565 C.ar    1  UNL1        0.1680
     12 C           4.0854   30.2932    9.4591 C.ar    1  UNL1        0.0441
     13 C           4.1020   28.9658    9.9615 C.ar    1  UNL1        0.0619
     14 C           2.9106   28.8176   10.6307 C.ar    1  UNL1        0.2384
     15 O           2.1609   29.9491   10.5774 O.2     1  UNL1       -0.4339
     16 N           2.3425   27.7167   11.3417 N.pl3   1  UNL1       -0.1507
     17 O           2.3598   26.6226   10.7622 O.2     1  UNL1       -0.1698
     18 O           1.8797   27.9342   12.4686 O.co2   1  UNL1       -0.7748
@<TRIPOS>UNITY_ATOM_ATTR
18 1
charge -1
@<TRIPOS>BOND
     1     3     4    2
     2     4     5    1
     3     4     9   am
     4     5     6    1
     5     6     1    1
     6     6     7   am
     7     1     2    2
     8     2    11    1
     9    11    12   ar
    10    11    15   ar
    11    12    13   ar
    12    13    14   ar
    13    14    16    1
    14    14    15   ar
    15    16    17    2
    16    16    18    1
    17     7     8    2
    18     7     9   am
    19     9    10    1
#	Name:			CHEMBL573
#	Creating user name:	trannguyen
#	Creation time:		Tue Feb  8 18:26:14 2022


#	Modifying user name:	trannguyen
#	Modification time:	Tue Feb  8 18:26:14 2022

@<TRIPOS>MOLECULE
CHEMBL573
 10 10 0 0 0
SMALL
GASTEIGER

@<TRIPOS>ATOM
      1 C           2.7139   28.7491   10.6325 C.ar    1  UNL1        0.0946
      2 C           4.0346   28.4574   10.2831 C.ar    1  UNL1        0.0096
      3 C           4.8323   29.4677    9.7490 C.ar    1  UNL1        0.0209
      4 C           4.2770   30.7274    9.5792 C.ar    1  UNL1        0.0989
      5 N           2.9991   31.0322    9.8948 N.ar    1  UNL1       -0.2421
      6 C           2.2379   30.0318   10.4029 C.ar    1  UNL1        0.1053
      7 O           2.1781   26.7253   11.7372 O.2     1  UNL1       -0.2450
      8 C           1.7939   27.7471   11.1974 C.2     1  UNL1        0.3396
      9 O           0.4915   28.0523   11.0188 O.3     1  UNL1       -0.4771
     10 H           0.3167   28.7979   10.4147 H       1  UNL1        0.2954
@<TRIPOS>BOND
     1     7     8    2
     2     8     9    1
     3     8     1    1
     4     9    10    1
     5     1     2   ar
     6     1     6   ar
     7     2     3   ar
     8     3     4   ar
     9     4     5   ar
    10     5     6   ar
#	Name:			CHEMBL578
#	Creating user name:	trannguyen
#	Creation time:		Tue Feb  8 18:26:14 2022


#	Modifying user name:	trannguyen
#	Modification time:	Tue Feb  8 18:26:14 2022

@<TRIPOS>MOLECULE
CHEMBL578
 29 30 0 0 0
SMALL
GASTEIGER

@<TRIPOS>ATOM
      1 N           3.0848   30.9635   10.1272 N.3     1  ALA1       -0.2835
      2 H           3.1022   31.2954   11.0855 H       1  ALA1        0.1241
      3 CA          2.4841   31.7630    9.0390 C.3     1  ALA1        0.1321
      4 CB          1.7810   30.8836    7.9944 C.3     1  ALA1        0.0270
      5 C           1.4857   32.8451    9.6141 C.2     1  ALA1        0.2403
      6 O           0.3395   32.5167    9.9283 O.2     1  ALA1       -0.2734
      7 N           1.9187   34.1639    9.8200 N.am    2  PRO2       -0.2704
      8 CD          0.9254   35.1511   10.2913 C.3     2  PRO2        0.0940
      9 CG          1.6875   36.4603   10.4239 C.3     2  PRO2        0.0238
     10 CB          2.6526   36.3718    9.2534 C.3     2  PRO2        0.0331
     11 CA          3.0936   34.8841    9.2602 C.3     2  PRO2        0.1745
     12 C           4.4555   34.7756    9.9843 C.2     2  PRO2        0.3320
     13 O           5.5342   34.9291    9.4132 O.2     2  PRO2       -0.2485
     14 OXT         4.4317   34.3550   11.2646 O.3     2  PRO2       -0.4790
     15 HXT         3.5517   34.1991   11.6546 H       2  PRO2        0.2951
     16 C           3.8072   29.7149    9.8135 C.3     0  UNK0        0.1550
     17 C           3.3060   28.4778   10.5850 C.2     0  UNK0        0.3314
     18 O           3.7480   27.3605   10.5011 O.2     0  UNK0       -0.2486
     19 O           2.1835   28.8783   11.2578 O.3     0  UNK0       -0.4476
     20 C          -0.1177   28.8237   10.2115 C.3     0  UNK0        0.0513
     21 C           0.9039   28.2156   11.1555 C.3     0  UNK0        0.2086
     22 C           5.3528   29.7761    9.8799 C.3     0  UNK0        0.0318
     23 C           6.1597   31.0090    9.3866 C.3     0  UNK0        0.0283
     24 C           7.3989   31.6578    9.9987 C.ar    0  UNK0       -0.0221
     25 C           8.6044   31.5574    9.2784 C.ar    0  UNK0       -0.0043
     26 C           9.7475   32.2971    9.6201 C.ar    0  UNK0       -0.0003
     27 C           9.6991   33.2173   10.6585 C.ar    0  UNK0       -0.0000
     28 C           8.5430   33.3005   11.4160 C.ar    0  UNK0       -0.0003
     29 C           7.4404   32.4814   11.1192 C.ar    0  UNK0       -0.0043
@<TRIPOS>BOND
     1    20    21    1
     2    21    19    1
     3    19    17    1
     4    17    18    2
     5    16    22    1
     6    16     1    1
     7    16    17    1
     8    22    23    1
     9    23    24    1
    10    24    25   ar
    11    24    29   ar
    12    25    26   ar
    13    26    27   ar
    14    27    28   ar
    15    28    29   ar
    16     1     3    1
    17     1     2    1
    18     3     4    1
    19     3     5    1
    20     5     6    2
    21     5     7   am
    22     7     8    1
    23     7    11    1
    24     8     9    1
    25     9    10    1
    26    10    11    1
    27    11    12    1
    28    12    13    2
    29    12    14    1
    30    14    15    1
#	Name:			CHEMBL57
#	Creating user name:	trannguyen
#	Creation time:		Tue Feb  8 18:26:14 2022


#	Modifying user name:	trannguyen
#	Modification time:	Tue Feb  8 18:26:14 2022

@<TRIPOS>MOLECULE
CHEMBL57
 21 24 0 0 0
SMALL
GASTEIGER

@<TRIPOS>ATOM
      1 C           1.6924   28.0135   11.5523 C.3     1  UNL1        0.0325
      2 C           1.5323   29.0100   10.4297 C.ar    1  UNL1       -0.0041
      3 C           0.2422   29.2185    9.9427 C.ar    1  UNL1        0.0177
      4 C           0.0759   30.1266    8.9318 C.ar    1  UNL1        0.1001
      5 N           1.0963   30.8102    8.3889 N.ar    1  UNL1       -0.2276
      6 C           2.3850   30.6219    8.8164 C.ar    1  UNL1        0.1497
      7 C           2.6303   29.7282    9.8670 C.ar    1  UNL1        0.0789
      8 N           3.8819   29.4241   10.4052 N.am    1  UNL1       -0.2784
      9 C           5.1287   29.9295   10.2522 C.2     1  UNL1        0.2523
     10 O           6.0133   29.3687   10.9047 O.2     1  UNL1       -0.2697
     11 C           5.4731   31.0994    9.4374 C.ar    1  UNL1        0.0856
     12 C           6.7885   31.5877    9.6545 C.ar    1  UNL1        0.0089
     13 C           7.2997   32.6522    8.9312 C.ar    1  UNL1        0.0209
     14 C           6.4699   33.2199    8.0050 C.ar    1  UNL1        0.1003
     15 N           5.2134   32.7854    7.7862 N.ar    1  UNL1       -0.2287
     16 C           4.6870   31.7167    8.4763 C.ar    1  UNL1        0.1408
     17 N           3.3786   31.3320    8.0910 N.pl3   1  UNL1       -0.2584
     18 H           3.9236   28.6816   11.0908 H       1  UNL1        0.1552
     19 C           2.8472   32.0744    6.8868 C.3     1  UNL1        0.0801
     20 C           3.4040   31.8644    5.4947 C.3     1  UNL1        0.0219
     21 C           2.0240   31.3951    5.8133 C.3     1  UNL1        0.0219
@<TRIPOS>BOND
     1     1     2    1
     2     2     3   ar
     3     2     7   ar
     4     3     4   ar
     5     4     5   ar
     6     5     6   ar
     7     6     7   ar
     8     6    17    1
     9     7     8    1
    10     8     9   am
    11     8    18    1
    12     9    10    2
    13     9    11    1
    14    11    12   ar
    15    11    16   ar
    16    12    13   ar
    17    13    14   ar
    18    14    15   ar
    19    15    16   ar
    20    16    17    1
    21    17    19    1
    22    19    20    1
    23    19    21    1
    24    20    21    1
#	Name:			CHEMBL580
#	Creating user name:	trannguyen
#	Creation time:		Tue Feb  8 18:26:14 2022


#	Modifying user name:	trannguyen
#	Modification time:	Tue Feb  8 18:26:14 2022

@<TRIPOS>MOLECULE
CHEMBL580
 23 25 0 0 0
SMALL
GASTEIGER

@<TRIPOS>ATOM
      1 O           6.1513   34.6975   10.3355 O.2     1  UNL1       -0.2699
      2 C           5.3424   34.1487    9.5833 C.2     1  UNL1        0.2775
      3 N           5.7869   33.6063    8.4037 N.am    1  UNL1       -0.2802
      4 C           5.0316   32.8949    7.4604 C.ar    1  UNL1        0.0519
      5 C           5.5059   32.9182    6.1415 C.ar    1  UNL1        0.0156
      6 C           4.7976   32.2835    5.1191 C.ar    1  UNL1        0.0127
      7 C           3.6175   31.6091    5.4130 C.ar    1  UNL1        0.0578
      8 CL          2.7389   30.8353    4.1534 Cl      1  UNL1       -0.0822
      9 C           3.1539   31.5366    6.7242 C.ar    1  UNL1        0.0141
     10 C           3.8724   32.1566    7.7608 C.ar    1  UNL1        0.0317
     11 C           3.4497   31.8827    9.1696 C.2     1  UNL1        0.0810
     12 N           3.4242   32.7459   10.1274 N.2     1  UNL1       -0.2355
     13 C           3.8163   34.1191    9.8572 C.3     1  UNL1        0.2954
     14 O           3.4894   34.9888   10.9287 O.3     1  UNL1       -0.3573
     15 H           6.7434   33.8596    8.1870 H       1  UNL1        0.1550
     16 H           3.9960   34.6312   11.6790 H       1  UNL1        0.2129
     17 C           2.9945   30.5035    9.5191 C.ar    1  UNL1        0.0279
     18 C           3.9914   29.5633    9.8219 C.ar    1  UNL1        0.0023
     19 C           3.6434   28.2594   10.1755 C.ar    1  UNL1        0.0001
     20 C           2.3019   27.8850   10.2179 C.ar    1  UNL1        0.0009
     21 C           1.3068   28.8101    9.8946 C.ar    1  UNL1        0.0114
     22 C           1.6471   30.1193    9.5375 C.ar    1  UNL1        0.0591
     23 CL          0.3602   31.1801    9.0883 Cl      1  UNL1       -0.0822
@<TRIPOS>BOND
     1     1     2    2
     2     2     3   am
     3     2    13    1
     4     3     4    1
     5     3    15    1
     6     4     5   ar
     7     4    10   ar
     8     5     6   ar
     9     6     7   ar
    10     7     8    1
    11     7     9   ar
    12     9    10   ar
    13    10    11    1
    14    11    17    1
    15    11    12    2
    16    17    18   ar
    17    17    22   ar
    18    18    19   ar
    19    19    20   ar
    20    20    21   ar
    21    21    22   ar
    22    22    23    1
    23    12    13    1
    24    13    14    1
    25    14    16    1
#	Name:			CHEMBL583
#	Creating user name:	trannguyen
#	Creation time:		Tue Feb  8 18:26:14 2022


#	Modifying user name:	trannguyen
#	Modification time:	Tue Feb  8 18:26:14 2022

@<TRIPOS>MOLECULE
CHEMBL583
 28 31 0 0 0
SMALL
GASTEIGER

@<TRIPOS>ATOM
      1 C           1.4566   32.1823    4.6796 C.3     1  UNL1        0.0336
      2 C           2.8806   32.3671    5.1255 C.ar    1  UNL1        0.0113
      3 C           3.7960   32.8740    4.1919 C.ar    1  UNL1        0.1495
      4 F           3.3359   33.1503    2.9614 F       1  UNL1       -0.2032
      5 C           5.1557   33.0637    4.4831 C.ar    1  UNL1        0.0769
      6 C           5.5806   32.7420    5.7828 C.ar    1  UNL1        0.0341
      7 C           4.7027   32.2406    6.7653 C.ar    1  UNL1        0.0640
      8 C           3.3453   32.0403    6.4167 C.ar    1  UNL1        0.0533
      9 C           2.4378   31.4344    7.4401 C.ar    1  UNL1        0.2044
     10 O           1.2546   31.1847    7.2183 O.2     1  UNL1       -0.2863
     11 C           2.9945   31.0588    8.7563 C.ar    1  UNL1        0.1314
     12 C           4.2900   31.3160    8.9738 C.ar    1  UNL1        0.0855
     13 N           5.1516   31.9292    8.0852 N.ar    1  UNL1       -0.3276
     14 N           6.1152   33.5511    3.5690 N.pl3   1  UNL1       -0.3029
     15 C           6.7677   32.5369    2.7056 C.3     1  UNL1        0.1079
     16 C           7.6407   33.2322    1.6414 C.3     1  UNL1        0.0903
     17 N           8.6767   34.0974    2.2366 N.3     1  UNL1       -0.2957
     18 C           8.0413   35.0803    3.1438 C.3     1  UNL1        0.0741
     19 C           9.1427   35.9104    3.8000 C.3     1  UNL1        0.0189
     20 C           7.1284   34.4221    4.2226 C.3     1  UNL1        0.1065
     21 H           9.1678   34.5899    1.4919 H       1  UNL1        0.1233
     22 C           2.2091   30.3872    9.8147 C.2     1  UNL1        0.3427
     23 O           2.2225   30.7333   10.9821 O.2     1  UNL1       -0.2449
     24 O           1.5064   29.3133    9.3871 O.3     1  UNL1       -0.4770
     25 H           1.4929   29.2126    8.4045 H       1  UNL1        0.2954
     26 C           6.5711   32.0633    8.4716 C.3     1  UNL1        0.0856
     27 C           7.1265   31.3065    9.6543 C.3     1  UNL1        0.0245
     28 C           7.5890   30.9652    8.2742 C.3     1  UNL1        0.0245
@<TRIPOS>BOND
     1     1     2    1
     2     2     3   ar
     3     2     8   ar
     4     3     4    1
     5     3     5   ar
     6     5    14    1
     7     5     6   ar
     8    14    15    1
     9    14    20    1
    10    15    16    1
    11    16    17    1
    12    17    18    1
    13    17    21    1
    14    18    19    1
    15    18    20    1
    16     6     7   ar
    17     7     8   ar
    18     7    13   ar
    19     8     9   ar
    20     9    10    2
    21     9    11   ar
    22    11    22    1
    23    11    12   ar
    24    22    23    2
    25    22    24    1
    26    24    25    1
    27    12    13   ar
    28    13    26    1
    29    26    27    1
    30    26    28    1
    31    27    28    1
#	Name:			CHEMBL584
#	Creating user name:	trannguyen
#	Creation time:		Tue Feb  8 18:26:14 2022


#	Modifying user name:	trannguyen
#	Modification time:	Tue Feb  8 18:26:14 2022

@<TRIPOS>MOLECULE
CHEMBL584
 44 47 0 0 0
SMALL
GASTEIGER

@<TRIPOS>ATOM
      1 C           3.0242   33.7171    9.3004 C.3     1  UNL1        0.1111
      2 C           3.5699   33.5748    6.8555 C.2     1  UNL1        0.2457
      3 O           3.1056   34.6566    6.6375 O.2     1  UNL1       -0.2702
      4 N           3.6162   33.0409    8.1358 N.am    1  UNL1       -0.2992
      5 H           3.8447   32.0737    8.2846 H       1  UNL1        0.1498
      6 C           1.9002   31.6507    5.3211 C.3     1  UNL1        0.0343
      7 C           3.3661   31.8074    5.0127 C.ar    1  UNL1        0.0162
      8 C           3.9751   31.0929    3.9637 C.ar    1  UNL1        0.1298
      9 O           3.3058   30.2428    3.1282 O.3     1  UNL1       -0.5058
     10 C           5.3390   31.1993    3.7009 C.ar    1  UNL1        0.0363
     11 C           6.1351   32.0330    4.4727 C.ar    1  UNL1        0.0032
     12 C           5.5573   32.7744    5.5014 C.ar    1  UNL1        0.0044
     13 C           4.1783   32.7019    5.7668 C.ar    1  UNL1        0.0523
     14 H           2.3520   30.4019    3.1788 H       1  UNL1        0.2922
     15 C           4.1300   34.2774   10.2149 C.3     1  UNL1        0.1451
     16 O           3.5517   35.4094   10.8886 O.3     1  UNL1       -0.3813
     17 H           2.9808   35.8651   10.2438 H       1  UNL1        0.2105
     18 C           5.5289   34.5967    9.5459 C.3     1  UNL1        0.1037
     19 N           6.6785   35.0269   10.4219 N.3     1  UNL1       -0.2644
     20 C           7.1819   33.8768   11.2129 C.3     1  UNL1        0.0725
     21 C           7.7868   32.6918   10.4110 C.3     1  UNL1        0.0161
     22 C           6.7485   31.5851   10.1233 C.3     1  UNL1        0.0014
     23 C           7.1252   30.5661    9.0687 C.3     1  UNL1        0.0000
     24 C           7.6321   31.2708    7.8233 C.3     1  UNL1        0.0000
     25 C           8.8946   32.0470    8.1637 C.3     1  UNL1        0.0001
     26 C           8.6646   33.1482    9.2044 C.3     1  UNL1        0.0032
     27 C           8.2597   34.4913    8.5382 C.3     1  UNL1        0.0254
     28 C           7.8918   35.4947    9.6359 C.3     1  UNL1        0.1348
     29 C           7.9762   37.0270    9.2620 C.2     1  UNL1        0.2369
     30 O           7.7699   37.4540    8.1443 O.2     1  UNL1       -0.2737
     31 N           8.4898   37.8027   10.3157 N.am    1  UNL1       -0.3064
     32 H           8.5335   37.3397   11.2109 H       1  UNL1        0.1493
     33 C           8.8631   39.2481   10.3248 C.3     1  UNL1        0.0569
     34 C           8.6781   39.8688   11.7163 C.3     1  UNL1        0.0196
     35 C          10.3650   39.3596    9.9603 C.3     1  UNL1        0.0196
     36 C           8.0997   40.0892    9.2856 C.3     1  UNL1        0.0196
     37 C           2.0002   32.8970   10.0788 C.3     1  UNL1        0.0842
     38 S           1.2234   31.5810    9.0685 S.3     1  UNL1       -0.1118
     39 C           2.0222   30.1442    9.7121 C.ar    1  UNL1        0.0253
     40 C           3.4119   30.0161    9.6323 C.ar    1  UNL1        0.0061
     41 C           4.0189   28.8235   10.0273 C.ar    1  UNL1        0.0005
     42 C           3.2404   27.7727   10.5155 C.ar    1  UNL1        0.0000
     43 C           1.8599   27.9095   10.6127 C.ar    1  UNL1        0.0005
     44 C           1.2564   29.0878   10.2027 C.ar    1  UNL1        0.0061
@<TRIPOS>BOND
     1     6     7    1
     2     7     8   ar
     3     7    13   ar
     4     8     9    1
     5     8    10   ar
     6     9    14    1
     7    10    11   ar
     8    11    12   ar
     9    12    13   ar
    10    13     2    1
    11     2     3    2
    12     2     4   am
    13     4     1    1
    14     4     5    1
    15     1    37    1
    16    37    38    1
    17    38    39    1
    18    39    40   ar
    19    39    44   ar
    20    40    41   ar
    21    41    42   ar
    22    42    43   ar
    23    43    44   ar
    24    15    16    1
    25    15    18    1
    26    15     1    1
    27    16    17    1
    28    18    19    1
    29    19    20    1
    30    19    28    1
    31    20    21    1
    32    21    22    1
    33    21    26    1
    34    22    23    1
    35    23    24    1
    36    24    25    1
    37    25    26    1
    38    26    27    1
    39    27    28    1
    40    28    29    1
    41    29    30    2
    42    29    31   am
    43    31    33    1
    44    31    32    1
    45    33    34    1
    46    33    35    1
    47    33    36    1
#	Name:			CHEMBL585
#	Creating user name:	trannguyen
#	Creation time:		Tue Feb  8 18:26:14 2022


#	Modifying user name:	trannguyen
#	Modification time:	Tue Feb  8 18:26:14 2022

@<TRIPOS>MOLECULE
CHEMBL585
 25 27 0 0 0
SMALL
GASTEIGER

@<TRIPOS>ATOM
      1 N           0.4368   31.6396    9.4936 N.pl3   1  UNL1       -0.3274
      2 C           1.4526   31.8668    8.5912 C.ar    1  UNL1        0.2163
      3 N           2.4432   32.6678    8.9699 N.ar    1  UNL1       -0.1978
      4 C           3.4153   32.8814    8.0707 C.ar    1  UNL1        0.1491
      5 N           4.4921   33.6628    8.5224 N.pl3   1  UNL1       -0.3413
      6 C           3.4304   32.3289    6.7944 C.ar    1  UNL1        0.1482
      7 N           4.4147   32.5688    5.8808 N.ar    1  UNL1       -0.2366
      8 C           4.2839   31.9772    4.6673 C.ar    1  UNL1        0.1125
      9 C           3.1853   31.1429    4.4058 C.ar    1  UNL1        0.1449
     10 N           2.9864   30.4755    3.1949 N.pl3   1  UNL1       -0.3414
     11 N           2.2143   30.9378    5.3208 N.ar    1  UNL1       -0.2091
     12 C           2.3234   31.5226    6.5182 C.ar    1  UNL1        0.1868
     13 N           1.3488   31.3013    7.3946 N.ar    1  UNL1       -0.1932
     14 H           0.3825   32.3894   10.1682 H       1  UNL1        0.1452
     15 H          -0.4135   31.3796    9.0130 H       1  UNL1        0.1452
     16 H           4.2565   34.0801    9.4162 H       1  UNL1        0.1438
     17 H           4.7971   34.3220    7.8121 H       1  UNL1        0.1438
     18 H           3.8035   29.9349    2.9281 H       1  UNL1        0.1438
     19 H           2.1605   29.8903    3.3033 H       1  UNL1        0.1438
     20 C           5.3716   32.2693    3.7131 C.ar    1  UNL1        0.0204
     21 C           5.4700   33.5012    3.0417 C.ar    1  UNL1        0.0016
     22 C           6.5098   33.7577    2.1424 C.ar    1  UNL1        0.0000
     23 C           7.4799   32.7888    1.9023 C.ar    1  UNL1        0.0000
     24 C           7.4150   31.5668    2.5646 C.ar    1  UNL1        0.0000
     25 C           6.3741   31.3131    3.4625 C.ar    1  UNL1        0.0016
@<TRIPOS>BOND
     1     1     2    1
     2     1    14    1
     3     1    15    1
     4     2     3   ar
     5     2    13   ar
     6     3     4   ar
     7     4     5    1
     8     4     6   ar
     9     5    16    1
    10     5    17    1
    11     6     7   ar
    12     6    12   ar
    13     7     8   ar
    14     8    20    1
    15     8     9   ar
    16    20    21   ar
    17    20    25   ar
    18    21    22   ar
    19    22    23   ar
    20    23    24   ar
    21    24    25   ar
    22     9    10    1
    23     9    11   ar
    24    10    18    1
    25    10    19    1
    26    11    12   ar
    27    12    13   ar
#	Name:			CHEMBL588119
#	Creating user name:	trannguyen
#	Creation time:		Tue Feb  8 18:26:14 2022


#	Modifying user name:	trannguyen
#	Modification time:	Tue Feb  8 18:26:14 2022

@<TRIPOS>MOLECULE
CHEMBL588119
 25 25 0 0 0
SMALL
GASTEIGER

@<TRIPOS>ATOM
      1 C           1.4552   31.4019    8.4499 C.3     1  UNL1        0.1470
      2 O           0.2330   32.1377    8.3543 O.3     1  UNL1       -0.3787
      3 H          -0.2771   31.8797    9.1428 H       1  UNL1        0.2108
      4 C           2.3494   31.6940    7.2582 C.ar    1  UNL1        0.0056
      5 C           3.5414   32.3968    7.4168 C.ar    1  UNL1       -0.0014
      6 C           4.3703   32.6843    6.3284 C.ar    1  UNL1        0.0059
      7 C           3.9836   32.3056    5.0311 C.ar    1  UNL1        0.0252
      8 C           2.8086   31.5917    4.8638 C.ar    1  UNL1        0.0059
      9 C           1.9991   31.2705    5.9595 C.ar    1  UNL1       -0.0014
     10 S           5.0474   32.7204    3.6648 S.3     1  UNL1       -0.1145
     11 C           6.4550   31.5615    3.9203 C.3     1  UNL1        0.0520
     12 C           6.9914   31.0375    2.5914 C.3     1  UNL1        0.0120
     13 C           7.5621   32.3051    4.6719 C.3     1  UNL1        0.0120
     14 C           2.1355   31.6418    9.8449 C.3     1  UNL1        0.0855
     15 C           1.6444   32.9564   10.4758 C.3     1  UNL1        0.0200
     16 N           1.8788   30.5483   10.8239 N.3     1  UNL1       -0.2963
     17 H           2.0544   30.8963   11.7685 H       1  UNL1        0.1233
     18 C           2.6654   29.3261   10.6163 C.3     1  UNL1        0.0686
     19 C           3.8766   29.4743    9.6832 C.3     1  UNL1        0.0171
     20 C           5.2100   29.4826   10.4443 C.3     1  UNL1        0.0014
     21 C           6.0377   30.7648   10.2491 C.3     1  UNL1        0.0000
     22 C           6.6448   30.9215    8.8459 C.3     1  UNL1        0.0000
     23 C           7.7900   31.9449    8.8275 C.3     1  UNL1        0.0000
     24 C           9.6061   30.4906    7.7939 C.3     1  UNL1        0.0000
     25 C           9.1628   31.2871    9.0159 C.3     1  UNL1        0.0000
@<TRIPOS>BOND
     1    24    25    1
     2    25    23    1
     3    23    22    1
     4    22    21    1
     5    21    20    1
     6    20    19    1
     7    19    18    1
     8    18    16    1
     9    16    17    1
    10    14    15    1
    11    14     1    1
    12    14    16    1
    13     1     2    1
    14     1     4    1
    15     2     3    1
    16     4     5   ar
    17     4     9   ar
    18     5     6   ar
    19     6     7   ar
    20     7    10    1
    21     7     8   ar
    22    10    11    1
    23    11    12    1
    24    11    13    1
    25     8     9   ar
#	Name:			CHEMBL58
#	Creating user name:	trannguyen
#	Creation time:		Tue Feb  8 18:26:14 2022


#	Modifying user name:	trannguyen
#	Modification time:	Tue Feb  8 18:26:14 2022

@<TRIPOS>MOLECULE
CHEMBL58
 40 42 0 0 0
SMALL
GASTEIGER

@<TRIPOS>ATOM
      1 O           6.1040   34.0142    5.5986 O.2     1  UNL1       -0.2864
      2 C           5.4571   33.1227    6.1637 C.2     1  UNL1        0.2000
      3 C           4.1539   32.7432    5.5875 C.ar    1  UNL1        0.0786
      4 C           3.8124   33.1317    4.2838 C.ar    1  UNL1        0.1370
      5 O           4.5968   33.9566    3.5229 O.3     1  UNL1       -0.5054
      6 C           2.6396   32.6756    3.6914 C.ar    1  UNL1        0.0398
      7 C           1.7846   31.8376    4.4051 C.ar    1  UNL1        0.0398
      8 C           2.0968   31.4857    5.7201 C.ar    1  UNL1        0.1370
      9 O           1.2596   30.6387    6.3889 O.3     1  UNL1       -0.5054
     10 C           3.2764   31.9505    6.3249 C.ar    1  UNL1        0.0786
     11 C           3.6152   31.6736    7.7352 C.2     1  UNL1        0.2000
     12 O           2.7269   31.4933    8.5786 O.2     1  UNL1       -0.2864
     13 C           5.0419   31.6854    8.1429 C.ar    1  UNL1        0.0564
     14 C           5.4540   31.0012    9.3133 C.ar    1  UNL1        0.0479
     15 C           6.8075   31.0477    9.6260 C.ar    1  UNL1        0.0157
     16 C           7.7323   31.6934    8.8126 C.ar    1  UNL1        0.0157
     17 C           7.3603   32.3575    7.6435 C.ar    1  UNL1        0.0479
     18 C           5.9759   32.3848    7.3398 C.ar    1  UNL1        0.0564
     19 H           5.3279   34.2861    4.0942 H       1  UNL1        0.2922
     20 H           0.4203   30.5492    5.9090 H       1  UNL1        0.2922
     21 N           4.5819   30.1844   10.0279 N.pl3   1  UNL1       -0.3315
     22 H           4.0909   30.6742   10.7871 H       1  UNL1        0.1469
     23 C           4.7593   28.7419   10.1850 C.3     1  UNL1        0.1044
     24 C           3.4126   27.9905   10.1573 C.3     1  UNL1        0.0901
     25 N           2.2357   28.7719   10.5960 N.3     1  UNL1       -0.2940
     26 H           2.5187   29.7534   10.6681 H       1  UNL1        0.1234
     27 C           1.1197   28.7088    9.6348 C.3     1  UNL1        0.1008
     28 C           0.0362   29.7686    9.9053 C.3     1  UNL1        0.1542
     29 O          -0.0241   30.7282    8.8539 O.3     1  UNL1       -0.3805
     30 H           0.1807   31.5916    9.2538 H       1  UNL1        0.2105
     31 N           8.3209   33.0355    6.8915 N.pl3   1  UNL1       -0.3315
     32 H           8.2098   34.0466    6.8596 H       1  UNL1        0.1469
     33 C           9.0039   32.4032    5.7603 C.3     1  UNL1        0.1044
     34 C           9.3290   33.4009    4.6291 C.3     1  UNL1        0.0901
     35 N           9.0934   32.8350    3.2927 N.3     1  UNL1       -0.2940
     36 H           9.7990   32.1255    3.0998 H       1  UNL1        0.1234
     37 C           7.7577   32.2337    3.1789 C.3     1  UNL1        0.1008
     38 C           7.4672   31.7132    1.7572 C.3     1  UNL1        0.1542
     39 O           7.2882   30.3003    1.7233 O.3     1  UNL1       -0.3805
     40 H           8.0473   29.9007    2.1800 H       1  UNL1        0.2105
@<TRIPOS>BOND
     1     1     2    2
     2     2     3    1
     3     2    18    1
     4     3     4   ar
     5     3    10   ar
     6     4     5    1
     7     4     6   ar
     8     5    19    1
     9     6     7   ar
    10     7     8   ar
    11     8     9    1
    12     8    10   ar
    13     9    20    1
    14    10    11    1
    15    11    12    2
    16    11    13    1
    17    13    14   ar
    18    13    18   ar
    19    14    21    1
    20    14    15   ar
    21    21    23    1
    22    21    22    1
    23    23    24    1
    24    24    25    1
    25    25    27    1
    26    25    26    1
    27    27    28    1
    28    28    29    1
    29    29    30    1
    30    15    16   ar
    31    16    17   ar
    32    17    31    1
    33    17    18   ar
    34    31    33    1
    35    31    32    1
    36    33    34    1
    37    34    35    1
    38    35    37    1
    39    35    36    1
    40    37    38    1
    41    38    39    1
    42    39    40    1
#	Name:			CHEMBL593686
#	Creating user name:	trannguyen
#	Creation time:		Tue Feb  8 18:26:14 2022


#	Modifying user name:	trannguyen
#	Modification time:	Tue Feb  8 18:26:14 2022

@<TRIPOS>MOLECULE
CHEMBL593686
 41 46 0 0 0
SMALL
GASTEIGER

@<TRIPOS>ATOM
      1 C           7.8281   32.7553    4.9621 C.ar    1  UNL1        0.0194
      2 C           8.8794   33.6874    5.0230 C.ar    1  UNL1        0.0590
      3 N           9.3864   34.2827    3.9018 N.ar    1  UNL1       -0.2496
      4 C           8.7627   34.1350    2.7319 C.ar    1  UNL1        0.0820
      5 C           9.1938   34.8451    1.5948 C.ar    1  UNL1        0.0278
      6 C           8.5370   34.7395    0.3529 C.ar    1  UNL1        0.0584
      7 C           7.4980   33.8121    0.3158 C.ar    1  UNL1        0.1461
      8 F           7.0338   33.2648   -0.8090 F       1  UNL1       -0.2036
      9 C           6.9638   33.2264    1.4391 C.ar    1  UNL1        0.0321
     10 C           7.6464   33.2890    2.6342 C.ar    1  UNL1        0.0259
     11 C           7.2569   32.4878    3.7197 C.ar    1  UNL1        0.0321
     12 C           9.4802   34.1404    6.3369 C.3     1  UNL1        0.0403
     13 C          10.6755   33.3848    6.8851 C.3     1  UNL1        0.0063
     14 C          10.8504   34.7804    6.3725 C.3     1  UNL1        0.0063
     15 C           6.2086   32.7803    6.8708 C.2     1  UNL1        0.0168
     16 C           7.2056   32.2151    6.1724 C.2     1  UNL1        0.0006
     17 O           5.0236   34.5091   10.7759 O.2     1  UNL1       -0.2500
     18 C           4.8082   33.8632    9.6934 C.2     1  UNL1        0.3197
     19 C           3.5214   34.0508    8.9690 C.3     1  UNL1        0.1388
     20 C           3.2357   33.0515    7.8641 C.3     1  UNL1        0.1256
     21 O           1.8655   32.6472    7.8821 O.3     1  UNL1       -0.3837
     22 C           4.0857   31.8034    7.9868 C.3     1  UNL1        0.0781
     23 C           5.5583   32.1812    8.0892 C.3     1  UNL1        0.1933
     24 O           5.7695   33.0919    9.1971 O.3     1  UNL1       -0.4475
     25 H           1.3578   33.2834    7.3482 H       1  UNL1        0.2104
     26 S           9.0716   35.8274   -0.9844 S.3     1  UNL1       -0.0846
     27 C           8.9227   35.0362   -2.5856 C.ar    1  UNL1        0.0297
     28 C           9.6682   33.8945   -2.9037 C.ar    1  UNL1        0.0088
     29 C           9.4052   33.1789   -4.0894 C.ar    1  UNL1        0.0301
     30 C           8.3248   33.5322   -4.8906 C.ar    1  UNL1        0.1402
     31 F           8.0215   32.8226   -5.9838 F       1  UNL1       -0.2042
     32 C           7.6307   34.6867   -4.6281 C.ar    1  UNL1        0.0301
     33 C           8.0840   35.4936   -3.5920 C.ar    1  UNL1        0.0088
     34 S           6.0960   31.0930    3.5083 S.3     1  UNL1       -0.0868
     35 C           4.4787   31.8279    3.8320 C.ar    1  UNL1        0.0296
     36 C           4.2384   33.2056    3.7343 C.ar    1  UNL1        0.0088
     37 C           2.9687   33.7378    3.9806 C.ar    1  UNL1        0.0301
     38 C           1.9230   32.8949    4.3233 C.ar    1  UNL1        0.1402
     39 F           0.7140   33.4126    4.5781 F       1  UNL1       -0.2042
     40 C           2.1216   31.5239    4.4113 C.ar    1  UNL1        0.0301
     41 C           3.3970   30.9902    4.1668 C.ar    1  UNL1        0.0088
@<TRIPOS>BOND
     1    17    18    2
     2    18    19    1
     3    18    24    1
     4    19    20    1
     5    20    21    1
     6    20    22    1
     7    21    25    1
     8    22    23    1
     9    23    24    1
    10    23    15    1
    11    15    16    2
    12    16     1    1
    13     1     2   ar
    14     1    11   ar
    15     2    12    1
    16     2     3   ar
    17    12    13    1
    18    12    14    1
    19    13    14    1
    20     3     4   ar
    21     4     5   ar
    22     4    10   ar
    23     5     6   ar
    24     6    26    1
    25     6     7   ar
    26    26    27    1
    27    27    28   ar
    28    27    33   ar
    29    28    29   ar
    30    29    30   ar
    31    30    31    1
    32    30    32   ar
    33    32    33   ar
    34     7     8    1
    35     7     9   ar
    36     9    10   ar
    37    10    11   ar
    38    11    34    1
    39    34    35    1
    40    35    36   ar
    41    35    41   ar
    42    36    37   ar
    43    37    38   ar
    44    38    39    1
    45    38    40   ar
    46    40    41   ar
#	Name:			CHEMBL594578
#	Creating user name:	trannguyen
#	Creation time:		Tue Feb  8 18:26:14 2022


#	Modifying user name:	trannguyen
#	Modification time:	Tue Feb  8 18:26:14 2022

@<TRIPOS>MOLECULE
CHEMBL594578
 36 40 0 0 0
SMALL
GASTEIGER

@<TRIPOS>ATOM
      1 C           7.0962   33.9555   -7.5499 C.ar    1  UNL1        0.1388
      2 C           7.6184   33.3510   -6.4178 C.ar    1  UNL1        0.0384
      3 C           7.9378   34.1341   -5.3068 C.ar    1  UNL1        0.0222
      4 C           7.7486   35.5072   -5.2922 C.ar    1  UNL1        0.0816
      5 N           8.0851   36.1538   -4.1737 N.ar    1  UNL1       -0.2496
      6 C           7.8766   37.4908   -4.0515 C.ar    1  UNL1        0.0590
      7 C           7.3106   38.2255   -5.1092 C.ar    1  UNL1        0.0194
      8 C           7.0238   37.5511   -6.3252 C.ar    1  UNL1        0.0321
      9 C           7.2081   36.1437   -6.4193 C.ar    1  UNL1        0.0267
     10 C           6.8743   35.3334   -7.5398 C.ar    1  UNL1        0.0389
     11 C           8.2043   38.0746   -2.6797 C.3     1  UNL1        0.0403
     12 C           7.1547   37.9697   -1.5815 C.3     1  UNL1        0.0063
     13 C           8.4482   37.2297   -1.4502 C.3     1  UNL1        0.0063
     14 C           6.9498   31.9010   -8.7017 C.3     1  UNL1        0.2525
     15 O           6.7226   33.3068   -8.6925 O.3     1  UNL1       -0.4714
     16 C           6.9337   39.6379   -4.9185 C.2     1  UNL1        0.0006
     17 C           5.7657   39.9712   -4.3392 C.2     1  UNL1        0.0168
     18 C           5.2451   41.3707   -4.1271 C.3     1  UNL1        0.1933
     19 C           4.3486   41.8277   -5.2719 C.3     1  UNL1        0.0781
     20 C           3.8802   43.2398   -4.9737 C.3     1  UNL1        0.1256
     21 O           3.0107   43.2325   -3.8426 O.3     1  UNL1       -0.3837
     22 C           5.0464   44.1715   -4.7075 C.3     1  UNL1        0.1388
     23 C           6.1871   43.5871   -3.9136 C.2     1  UNL1        0.3197
     24 O           7.0251   44.3059   -3.3928 O.2     1  UNL1       -0.2500
     25 O           6.3668   42.2490   -3.9633 O.3     1  UNL1       -0.4475
     26 H           2.1929   42.7660   -4.0946 H       1  UNL1        0.2104
     27 S           6.3606   38.4649   -7.7547 S.3     1  UNL1       -0.0868
     28 C           7.8364   39.2821   -8.3438 C.ar    1  UNL1        0.0294
     29 C           7.8946   40.6767   -8.3643 C.ar    1  UNL1        0.0062
     30 C           9.0341   41.3371   -8.8341 C.ar    1  UNL1       -0.0038
     31 C          10.1330   40.6161   -9.3226 C.ar    1  UNL1       -0.0225
     32 C          10.0538   39.2166   -9.3300 C.ar    1  UNL1       -0.0038
     33 C           8.9191   38.5555   -8.8442 C.ar    1  UNL1        0.0062
     34 C          11.3329   41.3714   -9.8727 C.3     1  UNL1        0.0224
     35 C          11.3865   42.8398   -9.4383 C.3     1  UNL1        0.0047
     36 C          12.6300   40.6479   -9.4996 C.3     1  UNL1        0.0047
@<TRIPOS>BOND
     1    14    15    1
     2    15     1    1
     3     1     2   ar
     4     1    10   ar
     5     2     3   ar
     6     3     4   ar
     7     4     5   ar
     8     4     9   ar
     9     5     6   ar
    10     6    11    1
    11     6     7   ar
    12    11    12    1
    13    11    13    1
    14    12    13    1
    15     7    16    1
    16     7     8   ar
    17    16    17    2
    18    18    19    1
    19    18    25    1
    20    18    17    1
    21    19    20    1
    22    20    22    1
    23    20    21    1
    24    21    26    1
    25    22    23    1
    26    23    24    2
    27    23    25    1
    28     8    27    1
    29     8     9   ar
    30    27    28    1
    31    28    29   ar
    32    28    33   ar
    33    29    30   ar
    34    30    31   ar
    35    31    34    1
    36    31    32   ar
    37    34    35    1
    38    34    36    1
    39    32    33   ar
    40     9    10   ar
#	Name:			CHEMBL594813
#	Creating user name:	trannguyen
#	Creation time:		Tue Feb  8 18:26:14 2022


#	Modifying user name:	trannguyen
#	Modification time:	Tue Feb  8 18:26:14 2022

@<TRIPOS>MOLECULE
CHEMBL594813
 34 38 0 0 0
SMALL
GASTEIGER

@<TRIPOS>ATOM
      1 C           4.8620   32.8443    6.8842 C.ar    1  UNL1        0.0321
      2 C           6.2466   32.7409    6.5958 C.ar    1  UNL1        0.0194
      3 C           6.6337   32.4615    5.2714 C.ar    1  UNL1        0.0590
      4 N           5.7050   32.2910    4.2928 N.ar    1  UNL1       -0.2496
      5 C           4.4009   32.3543    4.5676 C.ar    1  UNL1        0.0815
      6 C           3.5232   32.0840    3.5231 C.ar    1  UNL1        0.0214
      7 C           2.1408   32.0978    3.6978 C.ar    1  UNL1        0.0312
      8 C           1.6331   32.4186    4.9406 C.ar    1  UNL1        0.1403
      9 F           0.3082   32.4370    5.1325 F       1  UNL1       -0.2042
     10 C           2.4858   32.7059    6.0010 C.ar    1  UNL1        0.0316
     11 C           3.8980   32.6506    5.8487 C.ar    1  UNL1        0.0259
     12 C           8.0925   32.3038    4.8458 C.3     1  UNL1        0.0403
     13 C           8.4812   32.5530    3.4050 C.3     1  UNL1        0.0063
     14 C           8.9150   33.5225    4.4610 C.3     1  UNL1        0.0063
     15 C           7.2725   32.8629    7.6536 C.2     1  UNL1        0.0006
     16 C           7.8436   34.0297    8.0024 C.2     1  UNL1        0.0168
     17 C           8.9018   34.1724    9.0704 C.3     1  UNL1        0.1933
     18 C           9.1998   32.8688    9.8040 C.3     1  UNL1        0.0781
     19 C          10.2679   33.1519   10.8492 C.3     1  UNL1        0.1256
     20 O          11.4903   33.4740   10.1852 O.3     1  UNL1       -0.3837
     21 C           9.8624   34.2826   11.7745 C.3     1  UNL1        0.1388
     22 C           9.1016   35.4183   11.1293 C.2     1  UNL1        0.3197
     23 O           8.9855   36.4926   11.6954 O.2     1  UNL1       -0.2500
     24 O           8.4084   35.1513    9.9974 O.3     1  UNL1       -0.4475
     25 H          12.2113   33.4322   10.8403 H       1  UNL1        0.2104
     26 S           4.3177   33.2048    8.5896 S.3     1  UNL1       -0.0867
     27 C           2.6527   29.6713    9.7024 C.ar    1  UNL1        0.1392
     28 C           3.7610   28.8899   10.0322 C.ar    1  UNL1        0.0369
     29 C           5.0449   29.4384    9.9661 C.ar    1  UNL1        0.0036
     30 C           5.2221   30.7587    9.5467 C.ar    1  UNL1        0.0067
     31 C           4.1185   31.5437    9.2150 C.ar    1  UNL1        0.0325
     32 C           2.8379   31.0120    9.3635 C.ar    1  UNL1        0.0434
     33 C           1.1309   28.3938   10.9606 C.3     1  UNL1        0.2525
     34 O           1.4209   29.0677    9.7302 O.3     1  UNL1       -0.4714
@<TRIPOS>BOND
     1    33    34    1
     2    34    27    1
     3    27    28   ar
     4    27    32   ar
     5    28    29   ar
     6    29    30   ar
     7    30    31   ar
     8    31    26    1
     9    31    32   ar
    10    26     1    1
    11     1     2   ar
    12     1    11   ar
    13     2    15    1
    14     2     3   ar
    15    15    16    2
    16    17    18    1
    17    17    24    1
    18    17    16    1
    19    18    19    1
    20    19    21    1
    21    19    20    1
    22    20    25    1
    23    21    22    1
    24    22    23    2
    25    22    24    1
    26     3    12    1
    27     3     4   ar
    28    12    13    1
    29    12    14    1
    30    13    14    1
    31     4     5   ar
    32     5     6   ar
    33     5    11   ar
    34     6     7   ar
    35     7     8   ar
    36     8     9    1
    37     8    10   ar
    38    10    11   ar
#	Name:			CHEMBL595754
#	Creating user name:	trannguyen
#	Creation time:		Tue Feb  8 18:26:14 2022


#	Modifying user name:	trannguyen
#	Modification time:	Tue Feb  8 18:26:14 2022

@<TRIPOS>MOLECULE
CHEMBL595754
 35 39 0 0 0
SMALL
GASTEIGER

@<TRIPOS>ATOM
      1 C           4.0107   31.3381    7.8323 C.ar    1  UNL1        0.0321
      2 C           3.8580   31.9856    6.5722 C.ar    1  UNL1        0.0194
      3 C           2.5343   32.1668    6.0896 C.ar    1  UNL1        0.0590
      4 N           1.4632   31.6662    6.7830 N.ar    1  UNL1       -0.2496
      5 C           1.6275   31.0067    7.9405 C.ar    1  UNL1        0.0837
      6 C           0.5166   30.4431    8.5614 C.ar    1  UNL1        0.0510
      7 C           0.6314   29.7238    9.7496 C.ar    1  UNL1        0.1689
      8 F          -0.4500   29.1445   10.2853 F       1  UNL1       -0.2017
      9 C           1.8542   29.5979   10.3704 C.ar    1  UNL1        0.1675
     10 F           1.9911   28.9195   11.5165 F       1  UNL1       -0.2018
     11 C           2.9675   30.1640    9.7867 C.ar    1  UNL1        0.0340
     12 C           2.8853   30.8425    8.5403 C.ar    1  UNL1        0.0260
     13 C           2.1250   32.9753    4.8391 C.3     1  UNL1        0.0403
     14 C           3.0530   33.5654    3.7952 C.3     1  UNL1        0.0063
     15 C           2.2578   32.3540    3.4592 C.3     1  UNL1        0.0063
     16 C           5.0039   32.4250    5.7365 C.2     1  UNL1        0.0006
     17 C           5.7500   31.7222    4.8788 C.2     1  UNL1        0.0168
     18 C           6.8282   32.1634    3.9710 C.3     1  UNL1        0.1933
     19 C           6.8560   33.6858    3.8402 C.3     1  UNL1        0.0781
     20 C           8.0145   34.0281    2.9397 C.3     1  UNL1        0.1256
     21 O           9.2225   33.7121    3.6230 O.3     1  UNL1       -0.3837
     22 C           7.9229   33.2718    1.6257 C.3     1  UNL1        0.1388
     23 C           7.4415   31.8423    1.7002 C.2     1  UNL1        0.3197
     24 O           7.6204   31.0693    0.8026 O.2     1  UNL1       -0.2500
     25 O           6.6331   31.5147    2.7375 O.3     1  UNL1       -0.4475
     26 H           9.9578   34.1277    3.1379 H       1  UNL1        0.2104
     27 S           5.6268   30.9476    8.5742 S.3     1  UNL1       -0.0867
     28 C           7.5769   33.4293   10.9938 C.ar    1  UNL1        0.1392
     29 C           6.8830   34.6376   10.9688 C.ar    1  UNL1        0.0369
     30 C           5.7327   34.7569   10.2024 C.ar    1  UNL1        0.0036
     31 C           5.2863   33.6559    9.4723 C.ar    1  UNL1        0.0067
     32 C           5.9749   32.4383    9.4883 C.ar    1  UNL1        0.0325
     33 C           7.1256   32.3528   10.2427 C.ar    1  UNL1        0.0434
     34 C           9.6687   34.3933   11.4196 C.3     1  UNL1        0.2525
     35 O           8.7191   33.3768   11.7408 O.3     1  UNL1       -0.4714
@<TRIPOS>BOND
     1    34    35    1
     2    35    28    1
     3    28    29   ar
     4    28    33   ar
     5    29    30   ar
     6    30    31   ar
     7    31    32   ar
     8    32    27    1
     9    32    33   ar
    10    27     1    1
    11     1     2   ar
    12     1    12   ar
    13     2    16    1
    14     2     3   ar
    15    16    17    2
    16    18    19    1
    17    18    25    1
    18    18    17    1
    19    19    20    1
    20    20    22    1
    21    20    21    1
    22    21    26    1
    23    22    23    1
    24    23    24    2
    25    23    25    1
    26     3    13    1
    27     3     4   ar
    28    13    14    1
    29    13    15    1
    30    14    15    1
    31     4     5   ar
    32     5     6   ar
    33     5    12   ar
    34     6     7   ar
    35     7     8    1
    36     7     9   ar
    37     9    10    1
    38     9    11   ar
    39    11    12   ar
#	Name:			CHEMBL595984
#	Creating user name:	trannguyen
#	Creation time:		Tue Feb  8 18:26:14 2022


#	Modifying user name:	trannguyen
#	Modification time:	Tue Feb  8 18:26:14 2022

@<TRIPOS>MOLECULE
CHEMBL595984
 36 40 0 0 0
SMALL
GASTEIGER

@<TRIPOS>ATOM
      1 C           5.1682   32.9678    7.0976 C.ar    1  UNL1        0.0321
      2 C           6.5852   32.9712    6.9207 C.ar    1  UNL1        0.0194
      3 C           7.1214   32.5804    5.6534 C.ar    1  UNL1        0.0590
      4 N           6.2685   32.1255    4.6823 N.ar    1  UNL1       -0.2496
      5 C           4.9365   32.1886    4.8282 C.ar    1  UNL1        0.0837
      6 C           4.1323   31.7980    3.7602 C.ar    1  UNL1        0.0510
      7 C           2.7472   31.9261    3.8020 C.ar    1  UNL1        0.1689
      8 F           2.0096   31.5579    2.7468 F       1  UNL1       -0.2017
      9 C           2.1410   32.4801    4.9076 C.ar    1  UNL1        0.1675
     10 F           0.8143   32.6556    4.9591 F       1  UNL1       -0.2018
     11 C           2.9226   32.8798    5.9758 C.ar    1  UNL1        0.0340
     12 C           4.3243   32.6721    5.9965 C.ar    1  UNL1        0.0260
     13 C           8.6286   32.4851    5.1941 C.3     1  UNL1        0.0403
     14 C           9.0186   32.9011    3.7873 C.3     1  UNL1        0.0063
     15 C           9.6603   33.5893    4.9125 C.3     1  UNL1        0.0063
     16 C           7.4435   33.5359    7.9992 C.2     1  UNL1        0.0006
     17 C           8.0240   34.6849    7.8857 C.2     1  UNL1        0.0168
     18 C           8.6324   35.6050    8.9013 C.3     1  UNL1        0.1933
     19 C           8.4394   34.8019   10.1409 C.3     1  UNL1        0.0781
     20 C           9.0287   35.5743   11.2686 C.3     1  UNL1        0.1256
     21 O          10.4435   35.5861   11.1066 O.3     1  UNL1       -0.3837
     22 C           8.4778   36.9846   11.3223 C.3     1  UNL1        0.1388
     23 C           8.1563   37.6587   10.0075 C.2     1  UNL1        0.3197
     24 O           7.9134   38.8681    9.9633 O.2     1  UNL1       -0.2500
     25 O           7.9734   36.8670    8.9237 O.3     1  UNL1       -0.4475
     26 H          10.8387   35.6771   11.9910 H       1  UNL1        0.2104
     27 S           4.4084   33.4389    8.7011 S.3     1  UNL1       -0.0868
     28 C           3.0407   29.3461   10.3938 C.ar    1  UNL1       -0.0225
     29 C           2.1363   30.4043   10.2201 C.ar    1  UNL1       -0.0038
     30 C           2.5590   31.6585    9.7504 C.ar    1  UNL1        0.0062
     31 C           3.8995   31.8856    9.4370 C.ar    1  UNL1        0.0294
     32 C           4.7969   30.8242    9.6033 C.ar    1  UNL1        0.0062
     33 C           4.3846   29.5814   10.0975 C.ar    1  UNL1       -0.0038
     34 C           1.1465   27.9913   11.3732 C.3     1  UNL1        0.0047
     35 C           2.5939   27.9759   10.8763 C.3     1  UNL1        0.0224
     36 C           2.7686   26.9072    9.7924 C.3     1  UNL1        0.0047
@<TRIPOS>BOND
     1    34    35    1
     2    35    36    1
     3    35    28    1
     4    28    29   ar
     5    28    33   ar
     6    29    30   ar
     7    30    31   ar
     8    31    27    1
     9    31    32   ar
    10    27     1    1
    11     1     2   ar
    12     1    12   ar
    13     2    16    1
    14     2     3   ar
    15    16    17    2
    16    18    19    1
    17    18    25    1
    18    18    17    1
    19    19    20    1
    20    20    22    1
    21    20    21    1
    22    21    26    1
    23    22    23    1
    24    23    24    2
    25    23    25    1
    26     3    13    1
    27     3     4   ar
    28    13    14    1
    29    13    15    1
    30    14    15    1
    31     4     5   ar
    32     5     6   ar
    33     5    12   ar
    34     6     7   ar
    35     7     8    1
    36     7     9   ar
    37     9    10    1
    38     9    11   ar
    39    11    12   ar
    40    32    33   ar
#	Name:			CHEMBL595988
#	Creating user name:	trannguyen
#	Creation time:		Tue Feb  8 18:26:14 2022


#	Modifying user name:	trannguyen
#	Modification time:	Tue Feb  8 18:26:14 2022

@<TRIPOS>MOLECULE
CHEMBL595988
 32 36 0 0 0
SMALL
GASTEIGER

@<TRIPOS>ATOM
      1 C           5.3827   33.0246    7.7099 C.ar    1  UNL1        0.0194
      2 C           6.2880   33.0637    6.6365 C.ar    1  UNL1        0.0590
      3 N           5.9542   32.5784    5.4149 N.ar    1  UNL1       -0.2496
      4 C           4.7455   32.0549    5.1985 C.ar    1  UNL1        0.0814
      5 C           4.5028   31.5484    3.9290 C.ar    1  UNL1        0.0191
      6 C           3.2770   30.9873    3.5792 C.ar    1  UNL1        0.0015
      7 C           2.2736   30.9067    4.5313 C.ar    1  UNL1        0.0001
      8 C           2.5006   31.4048    5.8184 C.ar    1  UNL1        0.0020
      9 C           3.7377   32.0115    6.1797 C.ar    1  UNL1        0.0237
     10 C           4.0670   32.5683    7.4543 C.ar    1  UNL1        0.0320
     11 C           7.6778   33.6650    6.7637 C.3     1  UNL1        0.0403
     12 C           8.8805   32.7870    7.0480 C.3     1  UNL1        0.0063
     13 C           8.6929   33.3669    5.6804 C.3     1  UNL1        0.0063
     14 C           6.0197   34.5953    9.5668 C.2     1  UNL1        0.0168
     15 C           5.8564   33.3560    9.0733 C.2     1  UNL1        0.0006
     16 O           7.3131   31.8278   12.6355 O.2     1  UNL1       -0.2500
     17 C           7.4908   32.8277   11.9246 C.2     1  UNL1        0.3197
     18 C           8.8206   33.0636   11.2656 C.3     1  UNL1        0.1388
     19 C           8.9874   34.3632   10.5026 C.3     1  UNL1        0.1256
     20 O          10.3213   34.8410   10.6930 O.3     1  UNL1       -0.3837
     21 C           8.0178   35.4276   10.9664 C.3     1  UNL1        0.0781
     22 C           6.6006   34.8867   10.9297 C.3     1  UNL1        0.1933
     23 O           6.4841   33.6956   11.7333 O.3     1  UNL1       -0.4475
     24 H          10.4464   35.6245   10.1295 H       1  UNL1        0.2104
     25 S           2.8108   32.7013    8.7584 S.3     1  UNL1       -0.0868
     26 C           2.6103   31.0084    9.3284 C.ar    1  UNL1        0.0296
     27 C           1.3646   30.3796    9.4629 C.ar    1  UNL1        0.0088
     28 C           1.2700   29.0569    9.9092 C.ar    1  UNL1        0.0301
     29 C           2.4230   28.3592   10.2373 C.ar    1  UNL1        0.1402
     30 F           2.3334   27.0866   10.6445 F       1  UNL1       -0.2042
     31 C           3.6676   28.9671   10.1456 C.ar    1  UNL1        0.0301
     32 C           3.7607   30.2899    9.6944 C.ar    1  UNL1        0.0088
@<TRIPOS>BOND
     1    16    17    2
     2    17    18    1
     3    17    23    1
     4    18    19    1
     5    19    20    1
     6    19    21    1
     7    20    24    1
     8    21    22    1
     9    22    23    1
    10    22    14    1
    11    14    15    2
    12    15     1    1
    13     1     2   ar
    14     1    10   ar
    15     2    11    1
    16     2     3   ar
    17    11    12    1
    18    11    13    1
    19    12    13    1
    20     3     4   ar
    21     4     5   ar
    22     4     9   ar
    23     5     6   ar
    24     6     7   ar
    25     7     8   ar
    26     8     9   ar
    27     9    10   ar
    28    10    25    1
    29    25    26    1
    30    26    27   ar
    31    26    32   ar
    32    27    28   ar
    33    28    29   ar
    34    29    30    1
    35    29    31   ar
    36    31    32   ar
#	Name:			CHEMBL595
#	Creating user name:	trannguyen
#	Creation time:		Tue Feb  8 18:26:14 2022


#	Modifying user name:	trannguyen
#	Modification time:	Tue Feb  8 18:26:14 2022

@<TRIPOS>MOLECULE
CHEMBL595
 26 28 0 0 0
SMALL
GASTEIGER

@<TRIPOS>ATOM
      1 C           7.4220   32.8580    7.6892 C.ar    1  UNL1        0.1385
      2 C           6.4627   33.2989    8.6013 C.ar    1  UNL1        0.0366
      3 C           5.8535   32.4097    9.4832 C.ar    1  UNL1       -0.0011
      4 C           6.2070   31.0594    9.4812 C.ar    1  UNL1       -0.0206
      5 C           7.2372   30.6333    8.6287 C.ar    1  UNL1       -0.0011
      6 C           7.8451   31.5296    7.7393 C.ar    1  UNL1        0.0366
      7 O           7.9951   33.6778    6.7468 O.3     1  UNL1       -0.4750
      8 C           8.3724   32.9757    5.5471 C.3     1  UNL1        0.2117
      9 C           7.6313   33.5048    4.3258 C.3     1  UNL1        0.0931
     10 C           3.5933   32.1836    4.1603 C.ar    1  UNL1       -0.0030
     11 C           4.6189   31.2691    3.9215 C.ar    1  UNL1       -0.0015
     12 C           5.9425   31.6896    3.9701 C.ar    1  UNL1        0.0145
     13 C           6.2115   33.0233    4.2569 C.ar    1  UNL1        0.0627
     14 N           5.2348   33.9397    4.4580 N.ar    1  UNL1       -0.2484
     15 C           3.9572   33.5013    4.4130 C.ar    1  UNL1        0.0941
     16 C           1.2201   32.8650    4.5873 C.3     1  UNL1        0.0051
     17 C           2.1544   31.7590    4.1233 C.3     1  UNL1        0.0279
     18 C           5.4518   30.0753   10.3477 C.3     1  UNL1        0.0468
     19 C           4.2071   29.4489    9.7014 C.3     1  UNL1        0.1369
     20 S           4.0594   27.6468    9.9602 S.3     1  UNL1       -0.0482
     21 C           2.6152   27.8062   10.9345 C.2     1  UNL1        0.2792
     22 O           2.0597   26.8793   11.4764 O.2     1  UNL1       -0.2625
     23 N           2.2016   29.1001   10.9487 N.am    1  UNL1       -0.2460
     24 C           2.9297   30.0276   10.2704 C.2     1  UNL1        0.2392
     25 O           2.5856   31.2007   10.1519 O.2     1  UNL1       -0.2737
     26 H           1.3582   29.3514   11.4325 H       1  UNL1        0.1583
@<TRIPOS>BOND
     1    16    17    1
     2    17    10    1
     3    10    11   ar
     4    10    15   ar
     5    11    12   ar
     6    12    13   ar
     7    13     9    1
     8    13    14   ar
     9     9     8    1
    10     8     7    1
    11     7     1    1
    12     1     2   ar
    13     1     6   ar
    14     2     3   ar
    15     3     4   ar
    16     4    18    1
    17     4     5   ar
    18    18    19    1
    19    19    20    1
    20    19    24    1
    21    20    21    1
    22    21    22    2
    23    21    23   am
    24    23    24   am
    25    23    26    1
    26    24    25    2
    27     5     6   ar
    28    14    15   ar
#	Name:			CHEMBL597
#	Creating user name:	trannguyen
#	Creation time:		Tue Feb  8 18:26:14 2022


#	Modifying user name:	trannguyen
#	Modification time:	Tue Feb  8 18:26:14 2022

@<TRIPOS>MOLECULE
CHEMBL597
 23 25 0 0 0
SMALL
GASTEIGER

@<TRIPOS>ATOM
      1 N           2.4911   31.5172    9.0379 N.pl3   1  UNL1       -0.2759
      2 C           3.1036   30.3137    9.5230 C.ar    1  UNL1        0.0551
      3 C           4.4978   30.1758    9.6263 C.ar    1  UNL1        0.0150
      4 C           5.0810   28.9628   10.0259 C.ar    1  UNL1        0.0044
      5 C           4.2830   27.8630   10.3364 C.ar    1  UNL1        0.0367
      6 C           2.9034   27.9918   10.2584 C.ar    1  UNL1        0.1349
      7 O           2.0780   26.9426   10.5437 O.3     1  UNL1       -0.5055
      8 C           2.3171   29.1984    9.8724 C.ar    1  UNL1        0.0514
      9 H           2.6219   26.1630   10.7454 H       1  UNL1        0.2922
     10 C           2.9496   32.9751    3.4658 C.3     1  UNL1        0.0310
     11 C           2.7578   32.6334    4.9155 C.ar    1  UNL1       -0.0218
     12 C           1.9793   31.5466    5.3239 C.ar    1  UNL1       -0.0030
     13 C           1.8636   31.2204    6.6885 C.ar    1  UNL1        0.0145
     14 C           2.5349   31.9553    7.6825 C.ar    1  UNL1        0.0520
     15 C           3.2899   33.0567    7.2503 C.ar    1  UNL1        0.0145
     16 C           3.4132   33.3819    5.8932 C.ar    1  UNL1       -0.0030
     17 C           1.2246   31.7880    9.7844 C.3     1  UNL1        0.2131
     18 C           1.0726   33.2549   10.1940 C.2     1  UNL1        0.3125
     19 N          -0.1065   33.8143   10.2682 N.2     1  UNL1       -0.0634
     20 C           0.1825   35.2235   10.6708 C.3     1  UNL1        0.3130
     21 C           1.6848   35.4257   10.4495 C.3     1  UNL1        0.2575
     22 N           2.1528   34.0608   10.5066 N.pl3   1  UNL1       -0.2175
     23 H           3.0162   33.8291   10.0270 H       1  UNL1        0.2921
@<TRIPOS>BOND
     1    10    11    1
     2    11    12   ar
     3    11    16   ar
     4    12    13   ar
     5    13    14   ar
     6    14     1    1
     7    14    15   ar
     8     1    17    1
     9     1     2    1
    10    17    18    1
    11    18    19    2
    12    18    22    1
    13    19    20    1
    14    20    21    1
    15    21    22    1
    16    22    23    1
    17     2     3   ar
    18     2     8   ar
    19     3     4   ar
    20     4     5   ar
    21     5     6   ar
    22     6     7    1
    23     6     8   ar
    24     7     9    1
    25    15    16   ar
#	Name:			CHEMBL599
#	Creating user name:	trannguyen
#	Creation time:		Tue Feb  8 18:26:14 2022


#	Modifying user name:	trannguyen
#	Modification time:	Tue Feb  8 18:26:14 2022

@<TRIPOS>MOLECULE
CHEMBL599
 25 27 0 0 0
SMALL
GASTEIGER

@<TRIPOS>ATOM
      1 C           5.4270   31.4339    9.2885 C.2     1  UNL1        0.1558
      2 C           5.1437   30.3494   10.0556 C.2     1  UNL1        0.1541
      3 O           6.0422   29.8756   11.0062 O.2     1  UNL1       -0.5040
      4 C           3.8476   29.6263   10.0123 C.ar    1  UNL1        0.0540
      5 C           3.7230   28.2850   10.4072 C.ar    1  UNL1        0.0044
      6 C           2.4686   27.6645   10.4485 C.ar    1  UNL1        0.0002
      7 C           1.3213   28.3652   10.0774 C.ar    1  UNL1        0.0014
      8 C           1.4251   29.6850    9.6486 C.ar    1  UNL1        0.0203
      9 C           2.6815   30.2960    9.6314 C.ar    1  UNL1        0.1283
     10 S           2.8654   31.9290    9.0006 S.O2    1  UNL1        0.0769
     11 O           1.8956   32.0837    7.9294 O.2     1  UNL1       -0.1497
     12 O           2.9110   32.8281   10.1259 O.2     1  UNL1       -0.1497
     13 N           4.4136   31.7862    8.3073 N.pl3   1  UNL1       -0.1814
     14 C           4.6914   32.7572    7.2329 C.3     1  UNL1        0.1394
     15 H           5.5429   29.3866   11.6880 H       1  UNL1        0.2923
     16 N           6.7692   33.0326   10.5433 N.am    1  UNL1       -0.2595
     17 C           6.7091   32.2596    9.4123 C.2     1  UNL1        0.2689
     18 O           7.5863   32.1866    8.5575 O.2     1  UNL1       -0.2682
     19 H           6.0186   32.9784   11.2200 H       1  UNL1        0.1571
     20 C           9.3715   37.3118   11.5846 C.3     1  UNL1        0.0399
     21 C           8.9791   35.9039   11.3247 C.ar    1  UNL1        0.0293
     22 C           9.6864   34.7405   11.5596 C.ar    1  UNL1        0.1030
     23 N           9.0049   33.5645   11.3102 N.ar    1  UNL1       -0.2227
     24 C           7.8113   33.8491   10.8622 C.ar    1  UNL1        0.1655
     25 S           7.4545   35.5071   10.6491 S.2     1  UNL1       -0.0557
@<TRIPOS>BOND
     1    20    21    1
     2    21    22   ar
     3    21    25   ar
     4    22    23   ar
     5    23    24   ar
     6    24    16    1
     7    24    25   ar
     8    16    17   am
     9    16    19    1
    10    17    18    2
    11    17     1    1
    12     1     2    2
    13     1    13    1
    14     2     3    1
    15     2     4    1
    16     3    15    1
    17     4     5   ar
    18     4     9   ar
    19     5     6   ar
    20     6     7   ar
    21     7     8   ar
    22     8     9   ar
    23     9    10    1
    24    10    11    2
    25    10    12    2
    26    10    13    1
    27    13    14    1
#	Name:			CHEMBL600325
#	Creating user name:	trannguyen
#	Creation time:		Tue Feb  8 18:26:14 2022


#	Modifying user name:	trannguyen
#	Modification time:	Tue Feb  8 18:26:14 2022

@<TRIPOS>MOLECULE
CHEMBL600325
 42 47 0 0 0
SMALL
GASTEIGER

@<TRIPOS>ATOM
      1 C           7.1813   33.7145    9.9878 C.3     1  UNL1        0.1392
      2 C           5.6845   33.6779   10.1542 C.2     1  UNL1       -0.0056
      3 C           4.8603   32.7766    9.5851 C.2     1  UNL1       -0.0468
      4 C           3.3570   32.8747    9.7128 C.3     1  UNL1        0.0218
      5 C           2.6735   32.9789    8.3432 C.3     1  UNL1        0.0067
      6 C           3.1928   31.9568    7.2979 C.3     1  UNL1        0.0253
      7 C           4.7462   31.9089    7.2565 C.3     1  UNL1        0.0057
      8 C           5.3299   33.1520    6.5464 C.3     1  UNL1        0.0005
      9 C           4.3700   33.9993    5.7156 C.3     1  UNL1        0.0026
     10 C           3.2096   33.2782    5.0064 C.3     1  UNL1        0.0264
     11 C           2.1591   34.3821    4.6840 C.3     1  UNL1        0.0027
     12 C           3.5943   32.5949    3.6340 C.3     1  UNL1        0.0277
     13 C           2.6986   31.3473    3.5999 C.3     1  UNL1        0.0069
     14 C           2.6778   30.8564    5.0376 C.3     1  UNL1        0.0273
     15 C           2.5697   32.1405    5.8858 C.3     1  UNL1        0.0884
     16 O           1.1595   32.3630    6.0447 O.3     1  UNL1       -0.3867
     17 C           5.3583   31.6506    8.6889 C.3     1  UNL1        0.0151
     18 C           4.8811   30.2729    9.2338 C.3     1  UNL1        0.0040
     19 C           6.9109   31.5331    8.6824 C.3     1  UNL1        0.0066
     20 C           7.6841   32.8290    8.8448 C.3     1  UNL1        0.0345
     21 H           0.7881   31.6158    6.5455 H       1  UNL1        0.2102
     22 C           5.0668   32.3126    3.3427 C.ar    1  UNL1        0.0155
     23 C           5.8327   33.3710    2.7130 C.ar    1  UNL1        0.0055
     24 C           7.1027   33.1785    2.3381 C.ar    1  UNL1        0.0821
     25 C           7.7700   31.8865    2.5591 C.ar    1  UNL1        0.3460
     26 O           8.9371   31.7184    2.2046 O.2     1  UNL1       -0.2445
     27 O           7.0409   30.9072    3.1689 O.2     1  UNL1       -0.4182
     28 C           5.7016   31.1449    3.5179 C.ar    1  UNL1        0.1787
     29 O           7.5386   35.0872    9.7686 O.3     1  UNL1       -0.3267
     30 C           8.6778   39.1960    9.6942 C.3     1  UNL1        0.0348
     31 C           8.8136   37.6764    9.7010 C.3     1  UNL1        0.1471
     32 O           8.0216   37.1904   10.7943 O.3     1  UNL1       -0.3286
     33 C           8.0423   35.7639   10.9176 C.3     1  UNL1        0.2658
     34 C           9.4826   35.3124   11.2185 C.3     1  UNL1        0.1964
     35 O           9.9732   35.9078   12.4392 O.3     1  UNL1       -0.3775
     36 C          10.3929   35.7390   10.0682 C.3     1  UNL1        0.1714
     37 O          11.7636   35.4202   10.3631 O.3     1  UNL1       -0.3794
     38 C          10.2854   37.2483    9.8118 C.3     1  UNL1        0.1668
     39 O          10.9819   37.5794    8.6050 O.3     1  UNL1       -0.3795
     40 H           9.4592   36.7274   12.5864 H       1  UNL1        0.2106
     41 H          11.8608   35.5338   11.3312 H       1  UNL1        0.2105
     42 H          11.7133   36.9354    8.5272 H       1  UNL1        0.2105
@<TRIPOS>BOND
     1    31    32    1
     2    31    38    1
     3    31    30    1
     4    32    33    1
     5    33    34    1
     6    33    29    1
     7    29     1    1
     8     1     2    1
     9     1    20    1
    10     2     3    2
    11     3     4    1
    12     3    17    1
    13     4     5    1
    14     5     6    1
    15     6     7    1
    16     6    15    1
    17     7     8    1
    18     7    17    1
    19     8     9    1
    20     9    10    1
    21    10    12    1
    22    10    15    1
    23    10    11    1
    24    12    13    1
    25    12    22    1
    26    22    23   ar
    27    22    28   ar
    28    23    24   ar
    29    24    25   ar
    30    25    26    2
    31    25    27   ar
    32    27    28   ar
    33    13    14    1
    34    14    15    1
    35    15    16    1
    36    16    21    1
    37    17    19    1
    38    17    18    1
    39    19    20    1
    40    34    35    1
    41    34    36    1
    42    35    40    1
    43    36    37    1
    44    36    38    1
    45    37    41    1
    46    38    39    1
    47    39    42    1
#	Name:			CHEMBL603
#	Creating user name:	trannguyen
#	Creation time:		Tue Feb  8 18:26:14 2022


#	Modifying user name:	trannguyen
#	Modification time:	Tue Feb  8 18:26:14 2022

@<TRIPOS>MOLECULE
CHEMBL603
 43 47 0 0 0
SMALL
GASTEIGER

@<TRIPOS>ATOM
      1 C           7.0798   33.6908   -7.4375 C.ar    1  UNL1        0.1352
      2 C           7.6234   33.0929   -6.2884 C.ar    1  UNL1        0.0411
      3 C           7.9321   33.8616   -5.1562 C.ar    1  UNL1        0.0578
      4 C           7.5975   35.2073   -5.1302 C.ar    1  UNL1        0.0044
      5 C           7.0694   35.8015   -6.2721 C.ar    1  UNL1       -0.0008
      6 C           6.8455   35.0791   -7.4626 C.ar    1  UNL1        0.0162
      7 C           8.6627   33.2378   -4.0294 C.2     1  UNL1        0.2644
      8 O           9.8129   32.8346   -4.1846 O.2     1  UNL1       -0.2686
      9 N           7.9903   33.2473   -2.7982 N.am    1  UNL1       -0.1814
     10 H           7.0816   33.6912   -2.6908 H       1  UNL1        0.1769
     11 S           8.5411   32.5727   -1.3740 S.O2    1  UNL1        0.0755
     12 O           7.5099   31.6225   -1.0060 O.2     1  UNL1       -0.1499
     13 O           9.9170   32.1663   -1.5302 O.2     1  UNL1       -0.1499
     14 C           8.4699   33.8938   -0.1683 C.ar    1  UNL1        0.1213
     15 C           8.5682   35.2227   -0.6085 C.ar    1  UNL1        0.0199
     16 C           8.4859   36.2791    0.2971 C.ar    1  UNL1        0.0014
     17 C           8.2639   36.0237    1.6438 C.ar    1  UNL1       -0.0002
     18 C           8.1514   34.7081    2.0914 C.ar    1  UNL1       -0.0029
     19 C           8.2671   33.6221    1.2022 C.ar    1  UNL1       -0.0030
     20 C           8.2284   32.2360    1.7850 C.3     1  UNL1        0.0324
     21 C           6.8577   31.5606   -8.4565 C.3     1  UNL1        0.2525
     22 O           6.7105   32.9751   -8.5483 O.3     1  UNL1       -0.4717
     23 C           6.3346   35.7977   -8.7080 C.3     1  UNL1        0.0572
     24 C           7.3358   36.8777   -9.0302 C.ar    1  UNL1        0.0010
     25 C           8.6495   36.7111   -9.4347 C.ar    1  UNL1        0.0719
     26 N           9.2505   37.9426   -9.4810 N.ar    1  UNL1       -0.3243
     27 C          10.6494   38.1769   -9.7639 C.3     1  UNL1        0.1305
     28 C           8.3516   38.9252   -9.1330 C.ar    1  UNL1        0.0597
     29 C           8.5140   40.3040   -8.9508 C.ar    1  UNL1        0.0185
     30 C           7.4124   41.0428   -8.4973 C.ar    1  UNL1        0.0162
     31 C           6.1692   40.4475   -8.2920 C.ar    1  UNL1        0.0533
     32 C           6.0120   39.0864   -8.5794 C.ar    1  UNL1        0.0159
     33 C           7.1259   38.2951   -8.9307 C.ar    1  UNL1        0.0148
     34 N           5.0367   41.0840   -7.7546 N.am    1  UNL1       -0.2499
     35 C           4.7809   41.6016   -6.5189 C.2     1  UNL1        0.4053
     36 O           3.7096   42.1511   -6.2872 O.2     1  UNL1       -0.2261
     37 H           4.2489   41.2285   -8.3717 H       1  UNL1        0.1582
     38 O           5.8090   41.5265   -5.6473 O.3     1  UNL1       -0.4383
     39 C           5.6797   40.5056   -4.6697 C.3     1  UNL1        0.1705
     40 C           6.6261   39.3315   -4.8531 C.3     1  UNL1        0.0437
     41 C           6.6351   38.7027   -3.4701 C.3     1  UNL1        0.0038
     42 C           6.5524   39.8764   -2.4960 C.3     1  UNL1        0.0038
     43 C           6.0769   41.0737   -3.3112 C.3     1  UNL1        0.0437
@<TRIPOS>BOND
     1    21    22    1
     2    22     1    1
     3     1     2   ar
     4     1     6   ar
     5     2     3   ar
     6     3     7    1
     7     3     4   ar
     8     7     8    2
     9     7     9   am
    10     9    11    1
    11     9    10    1
    12    11    12    2
    13    11    13    2
    14    11    14    1
    15    14    15   ar
    16    14    19   ar
    17    15    16   ar
    18    16    17   ar
    19    17    18   ar
    20    18    19   ar
    21    19    20    1
    22     4     5   ar
    23     5     6   ar
    24     6    23    1
    25    23    24    1
    26    24    25   ar
    27    24    33   ar
    28    25    26   ar
    29    26    27    1
    30    26    28   ar
    31    28    29   ar
    32    28    33   ar
    33    29    30   ar
    34    30    31   ar
    35    31    34    1
    36    31    32   ar
    37    34    35   am
    38    34    37    1
    39    35    36    2
    40    35    38    1
    41    38    39    1
    42    39    40    1
    43    39    43    1
    44    40    41    1
    45    41    42    1
    46    42    43    1
    47    32    33   ar
#	Name:			CHEMBL605514
#	Creating user name:	trannguyen
#	Creation time:		Tue Feb  8 18:26:14 2022


#	Modifying user name:	trannguyen
#	Modification time:	Tue Feb  8 18:26:14 2022

@<TRIPOS>MOLECULE
CHEMBL605514
 34 38 0 0 0
SMALL
GASTEIGER

@<TRIPOS>ATOM
      1 C           5.3206   32.5984    6.5201 C.ar    1  UNL1        0.0320
      2 C           6.5859   32.4830    5.8738 C.ar    1  UNL1        0.0194
      3 C           6.5954   32.4465    4.4677 C.ar    1  UNL1        0.0590
      4 N           5.4525   32.2343    3.7650 N.ar    1  UNL1       -0.2496
      5 C           4.2722   32.1717    4.3771 C.ar    1  UNL1        0.0814
      6 C           3.1660   31.8601    3.5877 C.ar    1  UNL1        0.0191
      7 C           1.8713   31.7950    4.0996 C.ar    1  UNL1        0.0015
      8 C           1.6687   32.1179    5.4176 C.ar    1  UNL1        0.0001
      9 C           2.7666   32.4797    6.1891 C.ar    1  UNL1        0.0020
     10 C           4.1154   32.4336    5.7432 C.ar    1  UNL1        0.0237
     11 C           7.8342   32.7472    3.6217 C.3     1  UNL1        0.0403
     12 C           7.8644   32.3660    2.1514 C.3     1  UNL1        0.0063
     13 C           7.7085   33.8050    2.5347 C.3     1  UNL1        0.0063
     14 C           7.8687   32.3230    6.6135 C.2     1  UNL1        0.0006
     15 C           8.4693   31.1218    6.7583 C.2     1  UNL1        0.0168
     16 C           9.7797   30.8891    7.4900 C.3     1  UNL1        0.1933
     17 C           9.7312   31.4204    8.9168 C.3     1  UNL1        0.0781
     18 C          11.0792   31.1915    9.5718 C.3     1  UNL1        0.1256
     19 O          11.3239   29.7904    9.6716 O.3     1  UNL1       -0.3837
     20 C          12.1791   31.8491    8.7762 C.3     1  UNL1        0.1388
     21 C          12.0660   31.6807    7.2819 C.2     1  UNL1        0.3197
     22 O          13.0646   31.8438    6.5497 O.2     1  UNL1       -0.2500
     23 O          10.8392   31.5502    6.7490 O.3     1  UNL1       -0.4475
     24 H          11.5694   29.5874   10.5926 H       1  UNL1        0.2104
     25 S           5.3373   33.0969    8.2878 S.3     1  UNL1       -0.0868
     26 C           2.6850   29.8636   10.2435 C.ar    1  UNL1       -0.0225
     27 C           2.1891   31.1554   10.0013 C.ar    1  UNL1       -0.0038
     28 C           3.0192   32.1654    9.4865 C.ar    1  UNL1        0.0062
     29 C           4.3608   31.8963    9.1678 C.ar    1  UNL1        0.0294
     30 C           4.8585   30.6146    9.3911 C.ar    1  UNL1        0.0062
     31 C           4.0218   29.6111    9.8855 C.ar    1  UNL1       -0.0038
     32 C           0.3992   28.7484   10.2477 C.3     1  UNL1        0.0047
     33 C           1.8196   28.7525   10.8430 C.3     1  UNL1        0.0224
     34 C           2.4190   27.3486   10.6590 C.3     1  UNL1        0.0047
@<TRIPOS>BOND
     1    32    33    1
     2    33    34    1
     3    33    26    1
     4    26    27   ar
     5    26    31   ar
     6    27    28   ar
     7    28    29   ar
     8    29    25    1
     9    29    30   ar
    10    25     1    1
    11     1     2   ar
    12     1    10   ar
    13     2    14    1
    14     2     3   ar
    15    14    15    2
    16    16    17    1
    17    16    23    1
    18    16    15    1
    19    17    18    1
    20    18    20    1
    21    18    19    1
    22    19    24    1
    23    20    21    1
    24    21    22    2
    25    21    23    1
    26     3    11    1
    27     3     4   ar
    28    11    12    1
    29    11    13    1
    30    12    13    1
    31     4     5   ar
    32     5     6   ar
    33     5    10   ar
    34     6     7   ar
    35     7     8   ar
    36     8     9   ar
    37     9    10   ar
    38    30    31   ar
#	Name:			CHEMBL606359
#	Creating user name:	trannguyen
#	Creation time:		Tue Feb  8 18:26:14 2022


#	Modifying user name:	trannguyen
#	Modification time:	Tue Feb  8 18:26:14 2022

@<TRIPOS>MOLECULE
CHEMBL606359
 34 38 0 0 0
SMALL
GASTEIGER

@<TRIPOS>ATOM
      1 C           2.1044   29.7711   10.3540 C.ar    1  UNL1        0.1388
      2 C           0.9015   30.2119    9.8244 C.ar    1  UNL1        0.0384
      3 C           0.9052   30.9822    8.6631 C.ar    1  UNL1        0.0222
      4 C           2.0819   31.3726    8.0455 C.ar    1  UNL1        0.0816
      5 N           1.9640   32.1063    6.9394 N.ar    1  UNL1       -0.2496
      6 C           3.0667   32.5572    6.2909 C.ar    1  UNL1        0.0590
      7 C           4.3530   32.3034    6.7908 C.ar    1  UNL1        0.0194
      8 C           4.4818   31.5250    7.9623 C.ar    1  UNL1        0.0321
      9 C           3.3184   30.9990    8.5954 C.ar    1  UNL1        0.0267
     10 C           3.2984   30.1480    9.7345 C.ar    1  UNL1        0.0389
     11 C           2.8298   33.3372    5.0034 C.3     1  UNL1        0.0403
     12 C           2.5893   32.5952    3.7056 C.3     1  UNL1        0.0063
     13 C           1.4625   33.3359    4.3624 C.3     1  UNL1        0.0063
     14 C           2.1841   27.6086   11.2887 C.3     1  UNL1        0.2525
     15 O           2.2349   29.0181   11.4869 O.3     1  UNL1       -0.4714
     16 C           5.5150   32.8440    6.0705 C.2     1  UNL1        0.0006
     17 C           6.0788   32.2055    5.0316 C.2     1  UNL1        0.0168
     18 C           7.2924   32.7049    4.2898 C.3     1  UNL1        0.1933
     19 C           7.1115   34.1706    3.9295 C.3     1  UNL1        0.0781
     20 C           8.2851   34.6156    3.0829 C.3     1  UNL1        0.1256
     21 O           9.4694   34.5929    3.8751 O.3     1  UNL1       -0.3837
     22 C           8.4474   33.7326    1.8627 C.3     1  UNL1        0.1388
     23 C           8.2747   32.2585    2.1100 C.2     1  UNL1        0.3197
     24 O           8.7091   31.4365    1.3182 O.2     1  UNL1       -0.2500
     25 O           7.4770   31.8796    3.1308 O.3     1  UNL1       -0.4475
     26 H          10.1774   35.0359    3.3723 H       1  UNL1        0.2104
     27 S           6.1302   31.1939    8.6436 S.3     1  UNL1       -0.0868
     28 C           6.4399   32.6788    9.5945 C.ar    1  UNL1        0.0296
     29 C           5.4208   33.6304    9.7482 C.ar    1  UNL1        0.0088
     30 C           5.6710   34.8369   10.4105 C.ar    1  UNL1        0.0301
     31 C           6.9308   35.0774   10.9442 C.ar    1  UNL1        0.1402
     32 F           7.1687   36.2257   11.5912 F       1  UNL1       -0.2042
     33 C           7.9466   34.1392   10.8204 C.ar    1  UNL1        0.0301
     34 C           7.7052   32.9481   10.1318 C.ar    1  UNL1        0.0088
@<TRIPOS>BOND
     1    14    15    1
     2    15     1    1
     3     1     2   ar
     4     1    10   ar
     5     2     3   ar
     6     3     4   ar
     7     4     5   ar
     8     4     9   ar
     9     5     6   ar
    10     6    11    1
    11     6     7   ar
    12    11    12    1
    13    11    13    1
    14    12    13    1
    15     7    16    1
    16     7     8   ar
    17    16    17    2
    18    18    19    1
    19    18    25    1
    20    18    17    1
    21    19    20    1
    22    20    22    1
    23    20    21    1
    24    21    26    1
    25    22    23    1
    26    23    24    2
    27    23    25    1
    28     8    27    1
    29     8     9   ar
    30    27    28    1
    31    28    29   ar
    32    28    34   ar
    33    29    30   ar
    34    30    31   ar
    35    31    32    1
    36    31    33   ar
    37    33    34   ar
    38     9    10   ar
#	Name:			CHEMBL606813
#	Creating user name:	trannguyen
#	Creation time:		Tue Feb  8 18:26:14 2022


#	Modifying user name:	trannguyen
#	Modification time:	Tue Feb  8 18:26:14 2022

@<TRIPOS>MOLECULE
CHEMBL606813
 33 37 0 0 0
SMALL
GASTEIGER

@<TRIPOS>ATOM
      1 C           5.1558   32.7523    7.7881 C.ar    1  UNL1        0.0194
      2 C           6.0350   32.6299    6.6890 C.ar    1  UNL1        0.0590
      3 N           5.5820   32.3134    5.4478 N.ar    1  UNL1       -0.2496
      4 C           4.2824   32.2083    5.2030 C.ar    1  UNL1        0.0815
      5 C           3.9246   31.9263    3.8900 C.ar    1  UNL1        0.0214
      6 C           2.5940   31.8212    3.5008 C.ar    1  UNL1        0.0312
      7 C           1.6124   32.0611    4.4423 C.ar    1  UNL1        0.1403
      8 F           0.3254   32.0120    4.0766 F       1  UNL1       -0.2042
      9 C           1.9466   32.3400    5.7677 C.ar    1  UNL1        0.0316
     10 C           3.3035   32.3637    6.1999 C.ar    1  UNL1        0.0259
     11 C           3.7776   32.5322    7.5471 C.ar    1  UNL1        0.0321
     12 C           7.5391   32.8699    6.7837 C.3     1  UNL1        0.0403
     13 C           8.5100   31.7426    7.0898 C.3     1  UNL1        0.0063
     14 C           8.4084   32.2792    5.6944 C.3     1  UNL1        0.0063
     15 C           5.8582   34.3887    9.5502 C.2     1  UNL1        0.0168
     16 C           5.7272   33.1186    9.1122 C.2     1  UNL1        0.0006
     17 O           7.3885   31.9463   12.8267 O.2     1  UNL1       -0.2500
     18 C           7.6079   32.8701   12.0650 C.2     1  UNL1        0.3197
     19 C           9.0005   33.1574   11.5750 C.3     1  UNL1        0.1388
     20 C           9.0196   33.9319   10.2782 C.3     1  UNL1        0.1256
     21 O          10.3651   34.3157   10.0052 O.3     1  UNL1       -0.3837
     22 C           8.1587   35.1708   10.4175 C.3     1  UNL1        0.0781
     23 C           6.7175   34.7941   10.7363 C.3     1  UNL1        0.1933
     24 O           6.6151   33.7167   11.7070 O.3     1  UNL1       -0.4475
     25 H          10.4024   34.6714    9.1001 H       1  UNL1        0.2104
     26 S           2.5763   32.4494    8.9041 S.3     1  UNL1       -0.0868
     27 C           2.5836   30.7321    9.4274 C.ar    1  UNL1        0.0296
     28 C           1.3559   30.0494    9.4247 C.ar    1  UNL1        0.0088
     29 C           1.2761   28.7055    9.8041 C.ar    1  UNL1        0.0301
     30 C           2.4299   28.0309   10.1750 C.ar    1  UNL1        0.1402
     31 F           2.3510   26.7498   10.5596 F       1  UNL1       -0.2042
     32 C           3.6649   28.6692   10.1412 C.ar    1  UNL1        0.0301
     33 C           3.7457   30.0184    9.7568 C.ar    1  UNL1        0.0088
@<TRIPOS>BOND
     1    17    18    2
     2    18    19    1
     3    18    24    1
     4    19    20    1
     5    20    21    1
     6    20    22    1
     7    21    25    1
     8    22    23    1
     9    23    24    1
    10    23    15    1
    11    15    16    2
    12    16     1    1
    13     1     2   ar
    14     1    11   ar
    15     2    12    1
    16     2     3   ar
    17    12    13    1
    18    12    14    1
    19    13    14    1
    20     3     4   ar
    21     4     5   ar
    22     4    10   ar
    23     5     6   ar
    24     6     7   ar
    25     7     8    1
    26     7     9   ar
    27     9    10   ar
    28    10    11   ar
    29    11    26    1
    30    26    27    1
    31    27    28   ar
    32    27    33   ar
    33    28    29   ar
    34    29    30   ar
    35    30    31    1
    36    30    32   ar
    37    32    33   ar
#	Name:			CHEMBL60889
#	Creating user name:	trannguyen
#	Creation time:		Tue Feb  8 18:26:14 2022


#	Modifying user name:	trannguyen
#	Modification time:	Tue Feb  8 18:26:14 2022

@<TRIPOS>MOLECULE
CHEMBL60889
 32 34 0 0 0
SMALL
GASTEIGER

@<TRIPOS>ATOM
      1 C           4.6892   33.5309    9.9020 C.2     1  UNL1        0.2489
      2 O           4.1844   34.4160   10.5643 O.2     1  UNL1       -0.2700
      3 N           5.9921   33.1287   10.0767 N.am    1  UNL1       -0.2984
      4 H           6.3373   32.3536    9.5196 H       1  UNL1        0.1498
      5 C           3.3681   31.5260    8.9149 C.ar    1  UNL1        0.1441
      6 C           2.7019   30.9849    7.8023 C.ar    1  UNL1        0.0520
      7 C           2.5609   31.6925    6.6025 C.ar    1  UNL1        0.0553
      8 N           1.7678   31.1333    5.5835 N.pl3   1  UNL1       -0.3563
      9 C           3.0197   33.0136    6.5562 C.ar    1  UNL1        0.0709
     10 CL          2.7887   33.9742    5.1374 Cl      1  UNL1       -0.0810
     11 C           3.7020   33.5683    7.6407 C.ar    1  UNL1        0.0202
     12 C           3.8984   32.8320    8.8238 C.ar    1  UNL1        0.0882
     13 H           1.8178   30.1216    5.5156 H       1  UNL1        0.1424
     14 H           1.8998   31.5921    4.6835 H       1  UNL1        0.1424
     15 O           3.5187   30.8458   10.1010 O.3     1  UNL1       -0.4753
     16 C           4.6769   28.7466   10.0961 C.3     1  UNL1        0.0512
     17 C           3.3216   29.4296   10.1132 C.3     1  UNL1        0.2055
     18 C           6.8920   33.7120   11.0599 C.3     1  UNL1        0.1207
     19 C           8.3692   33.3282   10.8483 C.3     1  UNL1        0.1507
     20 C           8.6244   32.6284    9.4923 C.3     1  UNL1        0.1041
     21 N           8.4741   33.5353    8.3200 N.3     1  UNL1       -0.2647
     22 C           9.3707   34.6948    8.5275 C.3     1  UNL1        0.1049
     23 C           9.1456   35.3747    9.8907 C.3     1  UNL1        0.1595
     24 O           9.2532   34.4598   10.9870 O.3     1  UNL1       -0.3516
     25 C           8.8137   32.7933    7.0866 C.3     1  UNL1        0.0993
     26 C           7.8480   32.9556    5.9227 C.ar    1  UNL1       -0.0060
     27 C           7.8089   34.1310    5.1545 C.ar    1  UNL1       -0.0006
     28 C           6.8661   34.2794    4.1297 C.ar    1  UNL1        0.0294
     29 C           5.9724   33.2498    3.8590 C.ar    1  UNL1        0.1401
     30 F           5.0770   33.3898    2.8721 F       1  UNL1       -0.2042
     31 C           5.9956   32.0763    4.5995 C.ar    1  UNL1        0.0294
     32 C           6.9236   31.9337    5.6345 C.ar    1  UNL1       -0.0006
@<TRIPOS>BOND
     1    16    17    1
     2    17    15    1
     3    15     5    1
     4     5     6   ar
     5     5    12   ar
     6     6     7   ar
     7     7     8    1
     8     7     9   ar
     9     8    13    1
    10     8    14    1
    11     9    10    1
    12     9    11   ar
    13    11    12   ar
    14    12     1    1
    15     1     2    2
    16     1     3   am
    17     3    18    1
    18     3     4    1
    19    18    19    1
    20    19    20    1
    21    19    24    1
    22    20    21    1
    23    21    25    1
    24    21    22    1
    25    25    26    1
    26    26    27   ar
    27    26    32   ar
    28    27    28   ar
    29    28    29   ar
    30    29    30    1
    31    29    31   ar
    32    31    32   ar
    33    22    23    1
    34    23    24    1
#	Name:			CHEMBL608986
#	Creating user name:	trannguyen
#	Creation time:		Tue Feb  8 18:26:14 2022


#	Modifying user name:	trannguyen
#	Modification time:	Tue Feb  8 18:26:14 2022

@<TRIPOS>MOLECULE
CHEMBL608986
 43 48 0 0 0
SMALL
GASTEIGER

@<TRIPOS>ATOM
      1 C           7.5727   35.0500    0.5999 C.ar    1  UNL1        0.0584
      2 C           6.8310   33.9583    1.0644 C.ar    1  UNL1        0.0278
      3 C           6.6469   33.6415    2.3948 C.ar    1  UNL1        0.0820
      4 N           5.7344   32.7000    2.6825 N.ar    1  UNL1       -0.2496
      5 C           5.5242   32.2818    3.9609 C.ar    1  UNL1        0.0590
      6 C           6.3328   32.7850    5.0091 C.ar    1  UNL1        0.0194
      7 C           7.2457   33.8465    4.6764 C.ar    1  UNL1        0.0321
      8 C           7.4122   34.3063    3.3404 C.ar    1  UNL1        0.0259
      9 C           8.2822   35.3461    2.8843 C.ar    1  UNL1        0.0321
     10 C           8.3255   35.7322    1.5460 C.ar    1  UNL1        0.1461
     11 F           9.1371   36.7456    1.2020 F       1  UNL1       -0.2036
     12 C           4.4197   31.2170    4.0771 C.3     1  UNL1        0.0403
     13 C           3.2337   31.3875    4.9952 C.3     1  UNL1        0.0063
     14 C           3.0108   31.4229    3.5249 C.3     1  UNL1        0.0063
     15 C           6.1784   32.3851    6.4414 C.2     1  UNL1        0.0006
     16 C           5.3697   32.8837    7.4007 C.2     1  UNL1        0.0168
     17 C           5.4509   32.5193    8.8874 C.3     1  UNL1        0.1933
     18 C           6.8951   32.5692    9.3953 C.3     1  UNL1        0.0781
     19 C           7.0990   31.8331   10.7091 C.3     1  UNL1        0.1256
     20 O           6.6824   32.6660   11.7865 O.3     1  UNL1       -0.3837
     21 C           6.3862   30.5046   10.7824 C.3     1  UNL1        0.1388
     22 C           5.0194   30.5307   10.1887 C.2     1  UNL1        0.3197
     23 O           4.1160   29.7556   10.6114 O.2     1  UNL1       -0.2500
     24 O           4.8507   31.2127    9.0581 O.3     1  UNL1       -0.4475
     25 H           6.9813   32.2505   12.6172 H       1  UNL1        0.2104
     26 S           7.5668   35.5701   -1.1107 S.3     1  UNL1       -0.0845
     27 C           9.2024   33.3696   -4.1076 C.ar    1  UNL1        0.1392
     28 C          10.3573   32.8312   -3.5351 C.ar    1  UNL1        0.0369
     29 C          10.6389   33.0659   -2.1961 C.ar    1  UNL1        0.0036
     30 C           9.7316   33.7853   -1.4232 C.ar    1  UNL1        0.0067
     31 C           8.6435   34.4474   -2.0006 C.ar    1  UNL1        0.0325
     32 C           8.3741   34.2073   -3.3483 C.ar    1  UNL1        0.0434
     33 C           7.6036   33.0689   -5.8157 C.3     1  UNL1        0.2525
     34 O           8.9678   33.0122   -5.4098 O.3     1  UNL1       -0.4714
     35 S           8.2328   34.7048    5.9479 S.3     1  UNL1       -0.0867
     36 C           9.6579   33.6163    6.0667 C.ar    1  UNL1        0.0325
     37 C           9.6096   32.4640    6.8596 C.ar    1  UNL1        0.0067
     38 C          10.6231   31.5141    6.7954 C.ar    1  UNL1        0.0036
     39 C          11.7245   31.7349    5.9761 C.ar    1  UNL1        0.0369
     40 C          11.8452   32.9311    5.2686 C.ar    1  UNL1        0.1392
     41 C          10.7969   33.8579    5.2828 C.ar    1  UNL1        0.0434
     42 O          12.9718   33.0566    4.5017 O.3     1  UNL1       -0.4714
     43 C          13.8848   31.9657    4.5978 C.3     1  UNL1        0.2525
@<TRIPOS>BOND
     1    33    34    1
     2    34    27    1
     3    27    28   ar
     4    27    32   ar
     5    28    29   ar
     6    29    30   ar
     7    30    31   ar
     8    31    26    1
     9    31    32   ar
    10    26     1    1
    11     1     2   ar
    12     1    10   ar
    13     2     3   ar
    14     3     4   ar
    15     3     8   ar
    16     4     5   ar
    17     5    12    1
    18     5     6   ar
    19    12    13    1
    20    12    14    1
    21    13    14    1
    22     6    15    1
    23     6     7   ar
    24    15    16    2
    25    17    18    1
    26    17    24    1
    27    17    16    1
    28    18    19    1
    29    19    21    1
    30    19    20    1
    31    20    25    1
    32    21    22    1
    33    22    23    2
    34    22    24    1
    35     7    35    1
    36     7     8   ar
    37    35    36    1
    38    36    37   ar
    39    36    41   ar
    40    37    38   ar
    41    38    39   ar
    42    39    40   ar
    43    40    42    1
    44    40    41   ar
    45    42    43    1
    46     8     9   ar
    47     9    10   ar
    48    10    11    1
#	Name:			CHEMBL608
#	Creating user name:	trannguyen
#	Creation time:		Tue Feb  8 18:26:14 2022


#	Modifying user name:	trannguyen
#	Modification time:	Tue Feb  8 18:26:14 2022

@<TRIPOS>MOLECULE
CHEMBL608
 37 38 0 0 0
SMALL
GASTEIGER

@<TRIPOS>ATOM
      1 C           6.4954   39.2532   -3.5183 C.3     1  UNL1        0.0225
      2 C           7.8509   39.9541   -3.3769 C.3     1  UNL1        0.0860
      3 C           8.1615   40.1599   -1.8831 C.3     1  UNL1        0.0225
      4 S           9.2183   38.9978   -4.2194 S.3     1  UNL1       -0.1048
      5 C           8.6091   37.3260   -4.1231 C.ar    1  UNL1        0.0255
      6 C           8.1258   36.7104   -5.2776 C.ar    1  UNL1        0.0049
      7 C           7.7988   35.3471   -5.3115 C.ar    1  UNL1        0.0111
      8 C           7.8701   34.6613   -4.0720 C.ar    1  UNL1        0.1256
      9 O           7.5374   33.3348   -4.0444 O.3     1  UNL1       -0.5061
     10 C           8.2798   35.2659   -2.8518 C.ar    1  UNL1        0.0111
     11 C           8.6521   36.6192   -2.9216 C.ar    1  UNL1        0.0049
     12 H           6.5599   33.3082   -4.0747 H       1  UNL1        0.2922
     13 C           7.4681   34.6705   -6.6662 C.3     1  UNL1        0.0218
     14 C           6.0125   34.1439   -6.6717 C.3     1  UNL1        0.0045
     15 C           7.6563   35.6390   -7.8526 C.3     1  UNL1        0.0045
     16 C           8.3586   33.4304   -6.9735 C.3     1  UNL1        0.0045
     17 C           8.3706   34.4922   -1.5105 C.3     1  UNL1        0.0218
     18 C           9.0775   35.2850   -0.3751 C.3     1  UNL1        0.0045
     19 C           6.9658   34.1531   -0.9626 C.3     1  UNL1        0.0045
     20 C           9.1821   33.1896   -1.6875 C.3     1  UNL1        0.0045
     21 S           7.7686   41.6723   -4.1255 S.3     1  UNL1       -0.1048
     22 C           7.8721   41.3516   -5.8825 C.ar    1  UNL1        0.0255
     23 C           9.0830   41.5290   -6.5609 C.ar    1  UNL1        0.0049
     24 C           9.2042   41.3255   -7.9488 C.ar    1  UNL1        0.0111
     25 C           8.0202   40.9125   -8.6219 C.ar    1  UNL1        0.1256
     26 O           8.0596   40.8508   -9.9884 O.3     1  UNL1       -0.5061
     27 C           6.7909   40.6227   -7.9612 C.ar    1  UNL1        0.0111
     28 C           6.7653   40.8575   -6.5755 C.ar    1  UNL1        0.0049
     29 H           7.7381   41.7226  -10.2832 H       1  UNL1        0.2922
     30 C          10.5718   41.5550   -8.6586 C.3     1  UNL1        0.0218
     31 C          11.1351   40.2691   -9.3248 C.3     1  UNL1        0.0045
     32 C          10.4622   42.6080   -9.7854 C.3     1  UNL1        0.0045
     33 C          11.6667   42.0194   -7.6722 C.3     1  UNL1        0.0045
     34 C           5.5339   40.0550   -8.6768 C.3     1  UNL1        0.0218
     35 C           5.6129   38.5298   -8.9727 C.3     1  UNL1        0.0045
     36 C           4.2556   40.2540   -7.8336 C.3     1  UNL1        0.0045
     37 C           5.3348   40.7321  -10.0518 C.3     1  UNL1        0.0045
@<TRIPOS>BOND
     1     1     2    1
     2     2     3    1
     3     2     4    1
     4     2    21    1
     5     4     5    1
     6     5     6   ar
     7     5    11   ar
     8     6     7   ar
     9     7    13    1
    10     7     8   ar
    11    13    14    1
    12    13    15    1
    13    13    16    1
    14     8     9    1
    15     8    10   ar
    16     9    12    1
    17    10    17    1
    18    10    11   ar
    19    17    18    1
    20    17    19    1
    21    17    20    1
    22    21    22    1
    23    22    23   ar
    24    22    28   ar
    25    23    24   ar
    26    24    30    1
    27    24    25   ar
    28    30    31    1
    29    30    32    1
    30    30    33    1
    31    25    26    1
    32    25    27   ar
    33    26    29    1
    34    27    34    1
    35    27    28   ar
    36    34    35    1
    37    34    36    1
    38    34    37    1
#	Name:			CHEMBL611
#	Creating user name:	trannguyen
#	Creation time:		Tue Feb  8 18:26:14 2022


#	Modifying user name:	trannguyen
#	Modification time:	Tue Feb  8 18:26:14 2022

@<TRIPOS>MOLECULE
CHEMBL611
 30 33 0 0 0
SMALL
GASTEIGER

@<TRIPOS>ATOM
      1 C           3.1741   29.1470    9.8851 C.ar    1  UNL1        0.1739
      2 C           4.5141   29.4223   10.2390 C.ar    1  UNL1        0.0593
      3 C           5.1791   30.5777    9.8302 C.ar    1  UNL1        0.0901
      4 N           6.4470   30.8230   10.2034 N.ar    1  UNL1       -0.2134
      5 C           7.0292   31.9684    9.7998 C.ar    1  UNL1        0.2214
      6 N           6.4169   32.8497    8.9969 N.ar    1  UNL1       -0.1991
      7 C           5.1666   32.6004    8.6284 C.ar    1  UNL1        0.1298
      8 N           4.5946   33.5800    7.8057 N.pl3   1  UNL1       -0.3425
      9 C           4.4727   31.4680    9.0340 C.ar    1  UNL1        0.0522
     10 C           3.1314   31.2245    8.6834 C.ar    1  UNL1        0.0443
     11 C           2.4748   30.0641    9.0858 C.ar    1  UNL1        0.1726
     12 H           5.3154   34.2781    7.6562 H       1  UNL1        0.1437
     13 H           4.2954   33.1760    6.9248 H       1  UNL1        0.1437
     14 N           8.3314   32.2769   10.2162 N.pl3   1  UNL1       -0.2747
     15 C           8.3528   33.3209   11.2590 C.3     1  UNL1        0.1151
     16 C           9.8061   33.6092   11.6860 C.3     1  UNL1        0.1150
     17 N          10.6407   33.9292   10.5205 N.am    1  UNL1       -0.2741
     18 C          10.9183   35.2304   10.0838 C.2     1  UNL1        0.2529
     19 O          11.5137   35.4373    9.0289 O.2     1  UNL1       -0.2722
     20 C          10.6694   32.8412    9.5440 C.3     1  UNL1        0.1150
     21 C           9.2392   32.5248    9.0660 C.3     1  UNL1        0.1151
     22 C          10.4580   36.3886   11.0013 C.3     1  UNL1        0.1910
     23 C          11.3277   37.6405   10.9416 C.3     1  UNL1        0.0416
     24 C          10.3290   38.7747   10.9227 C.3     1  UNL1        0.0351
     25 C           9.1501   38.1594   10.2167 C.3     1  UNL1        0.1428
     26 O           9.1210   36.8002   10.6508 O.3     1  UNL1       -0.3471
     27 C           1.8117   27.9931   11.4907 C.3     1  UNL1        0.2526
     28 O           2.7239   27.9574   10.4004 O.3     1  UNL1       -0.4683
     29 O           1.1814   29.7993    8.7189 O.3     1  UNL1       -0.4684
     30 C           0.1682   30.7078    9.1383 C.3     1  UNL1        0.2526
@<TRIPOS>BOND
     1    27    28    1
     2    28     1    1
     3     1     2   ar
     4     1    11   ar
     5     2     3   ar
     6     3     4   ar
     7     3     9   ar
     8     4     5   ar
     9     5    14    1
    10     5     6   ar
    11    14    15    1
    12    14    21    1
    13    15    16    1
    14    16    17    1
    15    17    18   am
    16    17    20    1
    17    18    19    2
    18    18    22    1
    19    22    23    1
    20    22    26    1
    21    23    24    1
    22    24    25    1
    23    25    26    1
    24    20    21    1
    25     6     7   ar
    26     7     8    1
    27     7     9   ar
    28     8    12    1
    29     8    13    1
    30     9    10   ar
    31    10    11   ar
    32    11    29    1
    33    29    30    1
#	Name:			CHEMBL614
#	Creating user name:	trannguyen
#	Creation time:		Tue Feb  8 18:26:14 2022


#	Modifying user name:	trannguyen
#	Modification time:	Tue Feb  8 18:26:14 2022

@<TRIPOS>MOLECULE
CHEMBL614
 11 11 0 0 0
SMALL
GASTEIGER

@<TRIPOS>ATOM
      1 C           1.6040   29.3761   10.3958 C.ar    1  UNL1        0.1533
      2 C           0.5341   29.4168    9.5145 C.ar    1  UNL1        0.1226
      3 N           0.1413   30.5670    8.9080 N.ar    1  UNL1       -0.2390
      4 C           0.8667   31.6648    9.2250 C.ar    1  UNL1        0.1195
      5 C           1.9371   31.6230   10.1069 C.ar    1  UNL1        0.1196
      6 N           2.3375   30.4830   10.7171 N.ar    1  UNL1       -0.2360
      7 N           2.2937   27.0710   10.1686 N.am    1  UNL1       -0.3240
      8 C           1.9929   28.0889   11.0333 C.2     1  UNL1        0.2621
      9 O           2.0424   27.9439   12.2475 O.2     1  UNL1       -0.2687
     10 H           2.5657   26.1693   10.5322 H       1  UNL1        0.1453
     11 H           2.2417   27.2275    9.1680 H       1  UNL1        0.1453
@<TRIPOS>BOND
     1     7     8   am
     2     7    10    1
     3     7    11    1
     4     8     9    2
     5     8     1    1
     6     1     2   ar
     7     1     6   ar
     8     2     3   ar
     9     3     4   ar
    10     4     5   ar
    11     5     6   ar
#	Name:			CHEMBL61
#	Creating user name:	trannguyen
#	Creation time:		Tue Feb  8 18:26:14 2022


#	Modifying user name:	trannguyen
#	Modification time:	Tue Feb  8 18:26:14 2022

@<TRIPOS>MOLECULE
CHEMBL61
 31 35 0 0 0
SMALL
GASTEIGER

@<TRIPOS>ATOM
      1 C           4.8789   31.9498    9.1700 C.3     1  UNL1        0.0554
      2 C           3.9125   30.8527    9.6096 C.ar    1  UNL1       -0.0164
      3 C           4.3931   29.5621    9.8946 C.ar    1  UNL1        0.0360
      4 C           3.4769   28.5980   10.2533 C.ar    1  UNL1        0.1761
      5 C           2.1305   28.8657   10.3118 C.ar    1  UNL1        0.1762
      6 C           1.6217   30.1204   10.0544 C.ar    1  UNL1        0.0379
      7 C           2.5225   31.1478    9.7331 C.ar    1  UNL1        0.0039
      8 C           2.0027   32.5576    9.5181 C.3     1  UNL1        0.1366
      9 O           1.4876   32.7222    8.2060 O.3     1  UNL1       -0.3799
     10 C           3.0284   33.6440    9.8591 C.3     1  UNL1        0.0861
     11 C           3.0955   34.8396    8.9353 C.3     1  UNL1        0.2117
     12 O           4.3878   35.4145    9.1552 O.3     1  UNL1       -0.4484
     13 C           5.2431   34.4498    9.6042 C.2     1  UNL1        0.3173
     14 O           6.4396   34.6033    9.7411 O.2     1  UNL1       -0.2501
     15 C           4.4833   33.2044    9.9580 C.3     1  UNL1        0.1134
     16 O           1.3978   27.7744   10.6589 O.3     1  UNL1       -0.4346
     17 C           2.4421   26.7981   10.8544 C.3     1  UNL1        0.4294
     18 O           3.7630   27.3091   10.5786 O.3     1  UNL1       -0.4346
     19 H           1.1784   31.8582    7.8800 H       1  UNL1        0.2108
     20 C           6.5024   32.2545    5.6995 C.ar    1  UNL1        0.1751
     21 C           6.3095   32.1434    7.0903 C.ar    1  UNL1        0.0363
     22 C           5.0306   32.0773    7.6540 C.ar    1  UNL1       -0.0117
     23 C           3.9550   32.0847    6.7619 C.ar    1  UNL1        0.0363
     24 C           4.1099   32.2250    5.3750 C.ar    1  UNL1        0.1751
     25 C           5.3937   32.3442    4.8285 C.ar    1  UNL1        0.2060
     26 C           8.6086   33.3069    5.4434 C.3     1  UNL1        0.2526
     27 O           7.7641   32.1952    5.1542 O.3     1  UNL1       -0.4683
     28 O           2.9026   32.3137    4.7284 O.3     1  UNL1       -0.4683
     29 C           2.3094   33.5983    4.6086 C.3     1  UNL1        0.2526
     30 O           5.4792   32.5482    3.4739 O.3     1  UNL1       -0.4654
     31 C           5.7419   33.8834    3.0513 C.3     1  UNL1        0.2528
@<TRIPOS>BOND
     1    26    27    1
     2    27    20    1
     3    20    21   ar
     4    20    25   ar
     5    21    22   ar
     6    22    23   ar
     7    22     1    1
     8     1     2    1
     9     1    15    1
    10     2     3   ar
    11     2     7   ar
    12     3     4   ar
    13     4     5   ar
    14     4    18    1
    15     5     6   ar
    16     5    16    1
    17     6     7   ar
    18     7     8    1
    19     8    10    1
    20     8     9    1
    21     9    19    1
    22    10    11    1
    23    10    15    1
    24    11    12    1
    25    12    13    1
    26    13    15    1
    27    13    14    2
    28    16    17    1
    29    17    18    1
    30    23    24   ar
    31    24    28    1
    32    24    25   ar
    33    28    29    1
    34    25    30    1
    35    30    31    1
#	Name:			CHEMBL62193
#	Creating user name:	trannguyen
#	Creation time:		Tue Feb  8 18:26:14 2022


#	Modifying user name:	trannguyen
#	Modification time:	Tue Feb  8 18:26:14 2022

@<TRIPOS>MOLECULE
CHEMBL62193
 24 25 0 0 0
SMALL
GASTEIGER

@<TRIPOS>ATOM
      1 N           4.6190   32.8908    8.4803 N.pl3   1  UNL1       -0.1986
      2 H           4.8756   33.8533    8.7055 H       1  UNL1        0.1753
      3 C           3.5881   31.8625    5.1551 C.ar    1  UNL1        0.2316
      4 C           3.5258   31.9249    6.5223 C.ar    1  UNL1        0.0934
      5 C           4.5058   32.6972    7.0911 C.ar    1  UNL1        0.1563
      6 N           5.4749   33.3302    6.4227 N.ar    1  UNL1       -0.1778
      7 C           5.4430   33.1783    5.0979 C.ar    1  UNL1        0.3238
      8 N           4.5291   32.4746    4.4236 N.ar    1  UNL1       -0.1589
      9 C           2.2912   31.7528    3.2228 C.3     1  UNL1        0.2542
     10 O           2.5860   31.1816    4.4978 O.3     1  UNL1       -0.4560
     11 O           6.4577   33.8052    4.4078 O.3     1  UNL1       -0.4425
     12 C           6.3138   33.6662    2.9982 C.3     1  UNL1        0.2559
     13 S           5.6023   31.8305    9.3380 S.O2    1  UNL1        0.0747
     14 O           6.6259   31.3854    8.4190 O.2     1  UNL1       -0.1499
     15 O           5.9569   32.4620   10.5994 O.2     1  UNL1       -0.1499
     16 C           4.5548   30.4413    9.7060 C.ar    1  UNL1        0.1253
     17 C           3.1742   30.6133    9.7817 C.ar    1  UNL1        0.0214
     18 C           2.3575   29.5082   10.0414 C.ar    1  UNL1        0.0155
     19 C           2.9104   28.2414   10.2559 C.ar    1  UNL1        0.0416
     20 N           2.0763   27.1244   10.3774 N.pl3   1  UNL1       -0.3570
     21 C           4.2911   28.0737   10.1058 C.ar    1  UNL1        0.0155
     22 C           5.1184   29.1678    9.8464 C.ar    1  UNL1        0.0214
     23 H           1.1645   27.3348   10.7713 H       1  UNL1        0.1424
     24 H           2.5150   26.3282   10.8288 H       1  UNL1        0.1424
@<TRIPOS>BOND
     1     9    10    1
     2    10     3    1
     3     3     4   ar
     4     3     8   ar
     5     4     5   ar
     6     5     1    1
     7     5     6   ar
     8     1    13    1
     9     1     2    1
    10    13    14    2
    11    13    15    2
    12    13    16    1
    13    16    17   ar
    14    16    22   ar
    15    17    18   ar
    16    18    19   ar
    17    19    20    1
    18    19    21   ar
    19    20    23    1
    20    20    24    1
    21    21    22   ar
    22     6     7   ar
    23     7    11    1
    24     7     8   ar
    25    11    12    1
#	Name:			CHEMBL621
#	Creating user name:	trannguyen
#	Creation time:		Tue Feb  8 18:26:14 2022


#	Modifying user name:	trannguyen
#	Modification time:	Tue Feb  8 18:26:14 2022

@<TRIPOS>MOLECULE
CHEMBL621
 26 29 0 0 0
SMALL
GASTEIGER

@<TRIPOS>ATOM
      1 C           7.0547   32.1257    6.7602 C.3     1  UNL1        0.0743
      2 N           6.7115   32.8860    7.9813 N.3     1  UNL1       -0.2697
      3 C           5.2645   33.1731    8.1132 C.3     1  UNL1        0.0938
      4 C           4.3746   31.9197    8.2465 C.3     1  UNL1        0.1081
      5 N           4.7959   31.0608    9.3757 N.pl3   1  UNL1       -0.3046
      6 C           6.2609   30.8202    9.4648 C.3     1  UNL1        0.1081
      7 C           7.0905   32.1121    9.1945 C.3     1  UNL1        0.0938
      8 C           4.0055   29.9184    9.6197 C.ar    1  UNL1        0.0488
      9 C           4.6251   28.6759    9.8402 C.ar    1  UNL1        0.0146
     10 C           3.8829   27.5255   10.1484 C.ar    1  UNL1        0.0021
     11 C           2.4947   27.5887   10.2254 C.ar    1  UNL1        0.0115
     12 C           1.8612   28.8038    9.9976 C.ar    1  UNL1        0.0589
     13 CL          0.1425   28.9009   10.0833 Cl      1  UNL1       -0.0822
     14 C           2.6034   29.9528    9.7047 C.ar    1  UNL1        0.0259
     15 C           8.0782   32.8162    5.8441 C.3     1  UNL1        0.0438
     16 C           7.6551   32.8169    4.3712 C.3     1  UNL1        0.1337
     17 O           5.7979   30.6496    3.4167 O.2     1  UNL1       -0.2444
     18 C           5.4186   31.7480    3.7810 C.ar    1  UNL1        0.3523
     19 N           6.2188   32.8300    4.1988 N.ar    1  UNL1       -0.2005
     20 N           5.4312   33.8732    4.6498 N.ar    1  UNL1       -0.1474
     21 C           4.2210   33.4447    4.4604 C.ar    1  UNL1        0.1708
     22 C           2.9605   34.1525    4.7629 C.ar    1  UNL1        0.0393
     23 C           1.8067   33.5082    4.5184 C.ar    1  UNL1        0.0047
     24 C           1.7934   32.1633    3.9696 C.ar    1  UNL1        0.0193
     25 C           2.9505   31.5396    3.6977 C.ar    1  UNL1        0.0859
     26 N           4.1263   32.1941    3.9398 N.ar    1  UNL1       -0.2408
@<TRIPOS>BOND
     1    17    18    2
     2    18    19   ar
     3    18    26   ar
     4    19    16    1
     5    19    20   ar
     6    16    15    1
     7    15     1    1
     8     1     2    1
     9     2     3    1
    10     2     7    1
    11     3     4    1
    12     4     5    1
    13     5     8    1
    14     5     6    1
    15     8     9   ar
    16     8    14   ar
    17     9    10   ar
    18    10    11   ar
    19    11    12   ar
    20    12    13    1
    21    12    14   ar
    22     6     7    1
    23    20    21   ar
    24    21    22   ar
    25    21    26   ar
    26    22    23   ar
    27    23    24   ar
    28    24    25   ar
    29    25    26   ar
#	Name:			CHEMBL622
#	Creating user name:	trannguyen
#	Creation time:		Tue Feb  8 18:26:14 2022


#	Modifying user name:	trannguyen
#	Modification time:	Tue Feb  8 18:26:14 2022

@<TRIPOS>MOLECULE
CHEMBL622
 23 25 0 0 0
SMALL
GASTEIGER

@<TRIPOS>ATOM
      1 C           1.8366   29.2549    9.5589 C.ar    1  UNL1       -0.0066
      2 C           2.1872   28.0689   10.2287 C.ar    1  UNL1       -0.0028
      3 C           3.5099   27.7746   10.5645 C.ar    1  UNL1       -0.0002
      4 C           4.5437   28.6686   10.2642 C.ar    1  UNL1        0.0011
      5 C           4.2391   29.8688    9.5957 C.ar    1  UNL1        0.0125
      6 C           4.9973   31.0041    9.1862 C.ar    1  UNL1       -0.0046
      7 C           4.1311   31.8914    8.5882 C.ar    1  UNL1        0.0550
      8 N           2.8927   31.3122    8.5593 N.ar    1  UNL1       -0.3551
      9 H           2.0661   31.7080    8.1344 H       1  UNL1        0.1657
     10 C           2.9071   30.1153    9.2409 C.ar    1  UNL1        0.0521
     11 C           4.4538   33.2490    8.0325 C.3     1  UNL1        0.1356
     12 O           5.8307   33.5809    8.3788 O.3     1  UNL1       -0.3522
     13 C           6.7829   32.4931    8.3691 C.3     1  UNL1        0.1472
     14 C           6.4300   31.3566    9.3487 C.3     1  UNL1        0.0597
     15 C          -0.5956   28.7849   10.1144 C.3     1  UNL1        0.0051
     16 C           0.3896   29.5592    9.2453 C.3     1  UNL1        0.0278
     17 C           3.5563   34.3364    8.6856 C.3     1  UNL1        0.0335
     18 C           3.7351   34.4943   10.1986 C.3     1  UNL1        0.0029
     19 C           4.2969   33.2143    6.5004 C.3     1  UNL1        0.1421
     20 C           2.9265   33.5678    5.9727 C.2     1  UNL1        0.3166
     21 O           2.0259   32.7520    5.8850 O.2     1  UNL1       -0.2502
     22 O           2.7943   34.8375    5.5226 O.3     1  UNL1       -0.4801
     23 H           3.6014   35.3867    5.6459 H       1  UNL1        0.2951
@<TRIPOS>BOND
     1    15    16    1
     2    16     1    1
     3     1     2   ar
     4     1    10   ar
     5     2     3   ar
     6     3     4   ar
     7     4     5   ar
     8     5     6   ar
     9     5    10   ar
    10     6     7   ar
    11     6    14    1
    12     7     8   ar
    13     7    11    1
    14     8     9    1
    15     8    10   ar
    16    11    17    1
    17    11    19    1
    18    11    12    1
    19    17    18    1
    20    19    20    1
    21    20    21    2
    22    20    22    1
    23    22    23    1
    24    12    13    1
    25    13    14    1
#	Name:			CHEMBL625
#	Creating user name:	trannguyen
#	Creation time:		Tue Feb  8 18:26:14 2022


#	Modifying user name:	trannguyen
#	Modification time:	Tue Feb  8 18:26:14 2022

@<TRIPOS>MOLECULE
CHEMBL625
 15 17 0 0 0
SMALL
GASTEIGER

@<TRIPOS>ATOM
      1 C           4.0056   27.9151    9.9360 C.ar    1  UNL1        0.0016
      2 C           2.6906   27.4677   10.0887 C.ar    1  UNL1        0.0016
      3 C           1.6261   28.3670   10.2240 C.ar    1  UNL1        0.0185
      4 C           1.9485   29.7251   10.1983 C.ar    1  UNL1        0.0756
      5 N           1.1879   30.8594   10.3000 N.ar    1  UNL1       -0.3361
      6 H           0.1872   30.9181   10.4202 H       1  UNL1        0.1674
      7 C           2.0195   31.9446   10.2114 C.ar    1  UNL1        0.1589
      8 N           3.2749   31.5758   10.0575 N.ar    1  UNL1       -0.2255
      9 C           3.2472   30.2013   10.0478 C.ar    1  UNL1        0.0985
     10 C           4.3000   29.2847    9.9136 C.ar    1  UNL1        0.0206
     11 C           1.5224   33.3439   10.2854 C.ar    1  UNL1        0.1222
     12 C           2.3541   34.4412   10.2076 C.ar    1  UNL1        0.0591
     13 S           1.4261   35.8776   10.3308 S.2     1  UNL1       -0.0639
     14 C           0.0067   34.9228   10.4761 C.ar    1  UNL1        0.1346
     15 N           0.1721   33.6178   10.4397 N.ar    1  UNL1       -0.2332
@<TRIPOS>BOND
     1     1     2   ar
     2     1    10   ar
     3     2     3   ar
     4     3     4   ar
     5     4     5   ar
     6     4     9   ar
     7     5     6    1
     8     5     7   ar
     9     7    11    1
    10     7     8   ar
    11    11    12   ar
    12    11    15   ar
    13    12    13   ar
    14    13    14   ar
    15    14    15   ar
    16     8     9   ar
    17     9    10   ar
#	Name:			CHEMBL6273
#	Creating user name:	trannguyen
#	Creation time:		Tue Feb  8 18:26:14 2022


#	Modifying user name:	trannguyen
#	Modification time:	Tue Feb  8 18:26:14 2022

@<TRIPOS>MOLECULE
CHEMBL6273
 27 29 0 0 0
SMALL
GASTEIGER

@<TRIPOS>ATOM
      1 C           6.0319   31.7904    8.7531 C.ar    1  UNL1        0.1050
      2 C           6.2721   30.8193    9.7359 C.ar    1  UNL1        0.1557
      3 F           7.4883   30.6660   10.2786 F       1  UNL1       -0.2028
      4 C           5.2668   29.9955   10.2192 C.ar    1  UNL1        0.0357
      5 C           3.9695   30.1137    9.7175 C.ar    1  UNL1        0.0595
      6 C           2.9271   29.2262   10.2863 C.ar    1  UNL1        0.2048
      7 O           3.1979   28.3775   11.1331 O.2     1  UNL1       -0.2862
      8 C           1.5369   29.3962    9.8318 C.ar    1  UNL1        0.1314
      9 C           1.3365   30.2997    8.8609 C.ar    1  UNL1        0.0857
     10 N           2.3013   31.0924    8.2448 N.ar    1  UNL1       -0.3210
     11 C           3.6408   31.0460    8.7111 C.ar    1  UNL1        0.0922
     12 C           4.7011   31.8721    8.2578 C.ar    1  UNL1        0.1712
     13 F           4.4613   32.7877    7.3011 F       1  UNL1       -0.2013
     14 C          10.5903   33.7758    8.6861 C.3     1  UNL1        0.0897
     15 N           9.5268   34.2013    7.7794 N.3     1  UNL1       -0.2686
     16 C           9.0766   33.0986    6.9000 C.3     1  UNL1        0.0938
     17 C           8.2002   32.0263    7.5891 C.3     1  UNL1        0.1083
     18 N           7.0309   32.6554    8.2446 N.pl3   1  UNL1       -0.3011
     19 C           7.4400   33.7081    9.2056 C.3     1  UNL1        0.1083
     20 C           8.3603   34.7479    8.5103 C.3     1  UNL1        0.0938
     21 C           0.3971   28.6337   10.3791 C.2     1  UNL1        0.3427
     22 O          -0.7598   28.7921   10.0055 O.2     1  UNL1       -0.2449
     23 O           0.7225   27.7391   11.3361 O.3     1  UNL1       -0.4770
     24 H           1.6887   27.6959   11.5374 H       1  UNL1        0.2954
     25 C           1.9214   31.9761    7.1157 C.3     1  UNL1        0.1442
     26 C           1.9110   31.2455    5.7761 C.3     1  UNL1        0.2176
     27 F           3.1881   31.0705    5.3354 F       1  UNL1       -0.2322
@<TRIPOS>BOND
     1    14    15    1
     2    15    16    1
     3    15    20    1
     4    16    17    1
     5    17    18    1
     6    18     1    1
     7    18    19    1
     8     1     2   ar
     9     1    12   ar
    10     2     3    1
    11     2     4   ar
    12     4     5   ar
    13     5     6   ar
    14     5    11   ar
    15     6     7    2
    16     6     8   ar
    17     8    21    1
    18     8     9   ar
    19    21    22    2
    20    21    23    1
    21    23    24    1
    22     9    10   ar
    23    10    25    1
    24    10    11   ar
    25    25    26    1
    26    26    27    1
    27    11    12   ar
    28    12    13    1
    29    19    20    1
#	Name:			CHEMBL628
#	Creating user name:	trannguyen
#	Creation time:		Tue Feb  8 18:26:14 2022


#	Modifying user name:	trannguyen
#	Modification time:	Tue Feb  8 18:26:14 2022

@<TRIPOS>MOLECULE
CHEMBL628
 20 21 0 0 0
SMALL
GASTEIGER

@<TRIPOS>ATOM
      1 N           2.6335   31.1457    8.2899 N.ar    1  UNL1       -0.2475
      2 C           1.4627   30.5052    8.7198 C.ar    1  UNL1        0.2831
      3 O           0.3502   30.7178    8.2524 O.2     1  UNL1       -0.2652
      4 C           1.6960   29.5724    9.7709 C.ar    1  UNL1        0.1528
      5 C           2.9260   29.3335   10.2981 C.ar    1  UNL1        0.1696
      6 N           2.8782   28.4104   11.3003 N.ar    1  UNL1       -0.2063
      7 C           1.6048   28.0788   11.3816 C.ar    1  UNL1        0.1802
      8 N           0.8487   28.7500   10.4572 N.ar    1  UNL1       -0.3021
      9 C          -0.5679   28.5985   10.2435 C.3     1  UNL1        0.1322
     10 N           4.0487   29.9733    9.8312 N.ar    1  UNL1       -0.2628
     11 C           5.3495   29.7245   10.4215 C.3     1  UNL1        0.1366
     12 C           3.9191   30.9369    8.8282 C.ar    1  UNL1        0.3350
     13 O           4.8928   31.5823    8.4248 O.2     1  UNL1       -0.2461
     14 C           2.4986   32.1365    7.2259 C.3     1  UNL1        0.1136
     15 C           2.4414   31.4889    5.8342 C.3     1  UNL1        0.0252
     16 C           1.7167   32.3854    4.8224 C.3     1  UNL1        0.0097
     17 C           2.5909   32.7856    3.6338 C.3     1  UNL1        0.0646
     18 C           5.1038   33.3499    3.3072 C.3     1  UNL1        0.0722
     19 C           3.7925   33.6424    3.9888 C.2     1  UNL1        0.1511
     20 O           3.6763   34.6052    4.7489 O.2     1  UNL1       -0.2960
@<TRIPOS>BOND
     1    18    19    1
     2    19    20    2
     3    19    17    1
     4    17    16    1
     5    16    15    1
     6    15    14    1
     7    14     1    1
     8     1     2   ar
     9     1    12   ar
    10     2     3    2
    11     2     4   ar
    12     4     5   ar
    13     4     8   ar
    14     5     6   ar
    15     5    10   ar
    16     6     7   ar
    17     7     8   ar
    18     8     9    1
    19    10    11    1
    20    10    12   ar
    21    12    13    2
#	Name:			CHEMBL629
#	Creating user name:	trannguyen
#	Creation time:		Tue Feb  8 18:26:14 2022


#	Modifying user name:	trannguyen
#	Modification time:	Tue Feb  8 18:26:14 2022

@<TRIPOS>MOLECULE
CHEMBL629
 21 23 0 0 0
SMALL
GASTEIGER

@<TRIPOS>ATOM
      1 C           2.5199   31.3345    7.3638 C.2     1  UNL1       -0.0247
      2 C           2.9260   31.2919    8.6526 C.2     1  UNL1       -0.0048
      3 C           3.8555   32.3275    9.1569 C.ar    1  UNL1       -0.0043
      4 C           3.4207   33.6359    9.4044 C.ar    1  UNL1       -0.0003
      5 C           4.3321   34.6176    9.7927 C.ar    1  UNL1       -0.0000
      6 C           5.6773   34.2926    9.9537 C.ar    1  UNL1       -0.0003
      7 C           6.1106   32.9814    9.7515 C.ar    1  UNL1       -0.0043
      8 C           5.2022   31.9873    9.3624 C.ar    1  UNL1       -0.0218
      9 C           5.6493   30.5587    9.1704 C.3     1  UNL1        0.0310
     10 C           5.0231   29.6120   10.2020 C.3     1  UNL1        0.0310
     11 C           3.5303   29.3280   10.1536 C.ar    1  UNL1       -0.0218
     12 C           3.0863   28.2276   10.9197 C.ar    1  UNL1       -0.0043
     13 C           1.7361   27.8850   10.9927 C.ar    1  UNL1       -0.0003
     14 C           0.7952   28.6430   10.3106 C.ar    1  UNL1       -0.0000
     15 C           1.2089   29.7394    9.5551 C.ar    1  UNL1       -0.0003
     16 C           2.5707   30.0924    9.4569 C.ar    1  UNL1       -0.0043
     17 C           2.8366   32.3960    6.3359 C.3     1  UNL1        0.0433
     18 C           1.8163   32.4003    5.1842 C.3     1  UNL1        0.0769
     19 C           3.3153   33.2992    3.4877 C.3     1  UNL1        0.0897
     20 N           2.4136   32.2012    3.8467 N.3     1  UNL1       -0.2700
     21 C           3.1536   30.9350    3.8234 C.3     1  UNL1        0.0897
@<TRIPOS>BOND
     1    19    20    1
     2    20    21    1
     3    20    18    1
     4    18    17    1
     5    17     1    1
     6     1     2    2
     7     2     3    1
     8     2    16    1
     9     3     4   ar
    10     3     8   ar
    11     4     5   ar
    12     5     6   ar
    13     6     7   ar
    14     7     8   ar
    15     8     9    1
    16     9    10    1
    17    10    11    1
    18    11    12   ar
    19    11    16   ar
    20    12    13   ar
    21    13    14   ar
    22    14    15   ar
    23    15    16   ar
#	Name:			CHEMBL631
#	Creating user name:	trannguyen
#	Creation time:		Tue Feb  8 18:26:14 2022


#	Modifying user name:	trannguyen
#	Modification time:	Tue Feb  8 18:26:14 2022

@<TRIPOS>MOLECULE
CHEMBL631
 27 28 0 0 0
SMALL
GASTEIGER

@<TRIPOS>ATOM
      1 C           4.2896   29.8368    9.8472 C.ar    1  UNL1        0.1413
      2 C           4.6150   28.4711    9.9384 C.ar    1  UNL1        0.0370
      3 C           3.6409   27.4943   10.1314 C.ar    1  UNL1        0.0031
      4 C           2.3102   27.8662   10.2618 C.ar    1  UNL1        0.0003
      5 C           1.9663   29.2106   10.1714 C.ar    1  UNL1        0.0059
      6 C           2.9278   30.2185    9.9387 C.ar    1  UNL1        0.0686
      7 C           2.3615   31.6047    9.7772 C.2     1  UNL1        0.1763
      8 O           1.9036   32.2010   10.7542 O.2     1  UNL1       -0.2912
      9 C           2.3519   32.2787    8.4073 C.3     1  UNL1        0.0739
     10 C           2.0106   31.2933    7.2863 C.3     1  UNL1        0.0345
     11 C           2.2718   31.8010    5.8813 C.ar    1  UNL1       -0.0217
     12 C           2.6127   30.9362    4.8308 C.ar    1  UNL1       -0.0043
     13 C           2.9356   31.4297    3.5664 C.ar    1  UNL1       -0.0003
     14 C           2.9229   32.7995    3.3286 C.ar    1  UNL1       -0.0000
     15 C           2.5730   33.6755    4.3536 C.ar    1  UNL1       -0.0003
     16 C           2.2568   33.1813    5.6235 C.ar    1  UNL1       -0.0043
     17 O           5.2571   30.7802    9.6012 O.3     1  UNL1       -0.4727
     18 C           6.4210   30.6826   10.4336 C.3     1  UNL1        0.2358
     19 C           7.1163   32.0259   10.6671 C.3     1  UNL1        0.1697
     20 O           6.1730   33.0732   10.8999 O.3     1  UNL1       -0.3793
     21 H           6.6553   33.8978   10.6801 H       1  UNL1        0.2106
     22 C           8.0677   32.4287    9.5233 C.3     1  UNL1        0.1021
     23 N           7.5858   31.9504    8.2080 N.3     1  UNL1       -0.2953
     24 H           8.3788   31.5449    7.7061 H       1  UNL1        0.1233
     25 C           7.0068   33.0277    7.3967 C.3     1  UNL1        0.0686
     26 C           6.2034   32.2340    5.1473 C.3     1  UNL1        0.0015
     27 C           5.8089   32.5268    6.5902 C.3     1  UNL1        0.0171
@<TRIPOS>BOND
     1    26    27    1
     2    27    25    1
     3    25    23    1
     4    23    22    1
     5    23    24    1
     6    22    19    1
     7    19    20    1
     8    19    18    1
     9    20    21    1
    10    18    17    1
    11    17     1    1
    12     1     2   ar
    13     1     6   ar
    14     2     3   ar
    15     3     4   ar
    16     4     5   ar
    17     5     6   ar
    18     6     7    1
    19     7     8    2
    20     7     9    1
    21     9    10    1
    22    10    11    1
    23    11    12   ar
    24    11    16   ar
    25    12    13   ar
    26    13    14   ar
    27    14    15   ar
    28    15    16   ar
#	Name:			CHEMBL632
#	Creating user name:	trannguyen
#	Creation time:		Tue Feb  8 18:26:14 2022


#	Modifying user name:	trannguyen
#	Modification time:	Tue Feb  8 18:26:14 2022

@<TRIPOS>MOLECULE
CHEMBL632
 31 34 0 0 0
SMALL
GASTEIGER

@<TRIPOS>ATOM
      1 C           3.2811   33.4163    7.1303 C.3     1  UNL1        0.0028
      2 C           4.1966   32.3797    7.7717 C.3     1  UNL1        0.0315
      3 C           5.4956   32.1548    7.0008 C.3     1  UNL1        0.0029
      4 C           6.5168   31.5668    8.0096 C.3     1  UNL1        0.0054
      5 C           7.8576   32.3416    7.9572 C.3     1  UNL1        0.0334
      6 C           8.5337   32.0690    6.5913 C.3     1  UNL1        0.0071
      7 C           9.8831   32.7565    6.4531 C.3     1  UNL1        0.0226
      8 C          10.7851   32.3397    7.5818 C.2     1  UNL1       -0.0354
      9 C          11.9702   31.7591    7.3296 C.2     1  UNL1        0.0339
     10 C          12.8675   31.3061    8.4154 C.2     1  UNL1        0.1948
     11 O          13.9578   30.8246    8.1813 O.2     1  UNL1       -0.2866
     12 C          12.3736   31.4648    9.7994 C.2     1  UNL1        0.0378
     13 C          11.1942   32.0451   10.0528 C.2     1  UNL1       -0.0171
     14 C          10.2425   32.6078    8.9944 C.3     1  UNL1        0.0638
     15 C          10.2574   34.1452    9.1908 C.3     1  UNL1        0.0112
     16 C           8.7955   31.9473    9.1240 C.3     1  UNL1        0.1644
     17 F           8.9624   30.5796    9.0427 F       1  UNL1       -0.2369
     18 C           8.1015   32.2132   10.4775 C.3     1  UNL1        0.1409
     19 O           8.0313   33.5991   10.7543 O.3     1  UNL1       -0.3817
     20 C           6.6999   31.6082   10.6264 C.3     1  UNL1        0.0347
     21 C           5.7804   31.5131    9.3811 C.3     1  UNL1        0.0315
     22 C           5.1174   30.0934    9.5035 C.3     1  UNL1        0.0028
     23 C           4.6439   32.6067    9.2426 C.3     1  UNL1        0.1413
     24 O           3.5011   32.3187   10.0524 O.3     1  UNL1       -0.3797
     25 H           7.9443   33.7228   11.7199 H       1  UNL1        0.2104
     26 H           3.7898   32.0752   10.9474 H       1  UNL1        0.2108
     27 C           5.1084   34.0725    9.5245 C.2     1  UNL1        0.2038
     28 O           5.9455   34.6561    8.8288 O.2     1  UNL1       -0.2910
     29 C           4.4870   34.8087   10.7261 C.3     1  UNL1        0.2044
     30 O           5.3118   34.9173   11.8727 O.3     1  UNL1       -0.3749
     31 H           6.1890   35.2056   11.5512 H       1  UNL1        0.2110
@<TRIPOS>BOND
     1     1     2    1
     2     2     3    1
     3     2    23    1
     4     3     4    1
     5     4     5    1
     6     4    21    1
     7     5     6    1
     8     5    16    1
     9     6     7    1
    10     7     8    1
    11     8     9    2
    12     8    14    1
    13     9    10    1
    14    10    12    1
    15    10    11    2
    16    12    13    2
    17    13    14    1
    18    14    16    1
    19    14    15    1
    20    16    18    1
    21    16    17    1
    22    18    20    1
    23    18    19    1
    24    19    25    1
    25    20    21    1
    26    21    23    1
    27    21    22    1
    28    23    27    1
    29    23    24    1
    30    24    26    1
    31    27    28    2
    32    27    29    1
    33    29    30    1
    34    30    31    1
#	Name:			CHEMBL63323
#	Creating user name:	trannguyen
#	Creation time:		Tue Feb  8 18:26:14 2022


#	Modifying user name:	trannguyen
#	Modification time:	Tue Feb  8 18:26:14 2022

@<TRIPOS>MOLECULE
CHEMBL63323
 22 23 0 0 0
SMALL
GASTEIGER

@<TRIPOS>ATOM
      1 N           3.6515   31.7693    8.9634 N.pl3   1  UNL1       -0.2978
      2 H           4.3213   32.1565    9.6296 H       1  UNL1        0.1536
      3 C           1.7794   30.3913    9.7325 C.ar    1  UNL1        0.1071
      4 C           1.3172   29.1579   10.2132 C.ar    1  UNL1        0.0109
      5 C           2.2172   28.1263   10.4496 C.ar    1  UNL1        0.0210
      6 C           3.5542   28.3716   10.2133 C.ar    1  UNL1        0.1003
      7 N           4.0256   29.5466    9.7424 N.ar    1  UNL1       -0.2289
      8 C           3.1481   30.5487    9.4884 C.ar    1  UNL1        0.1384
      9 O          -0.0829   31.3194    8.6096 O.2     1  UNL1       -0.2450
     10 C           0.7652   31.4398    9.4745 C.2     1  UNL1        0.3408
     11 O           0.8894   32.5537   10.2264 O.3     1  UNL1       -0.4770
     12 H           1.6323   32.5321   10.8687 H       1  UNL1        0.2954
     13 C           4.0730   31.9762    7.6263 C.ar    1  UNL1        0.0493
     14 C           5.3413   32.5076    7.3640 C.ar    1  UNL1        0.0146
     15 C           5.7473   32.7773    6.0525 C.ar    1  UNL1        0.0012
     16 C           4.8828   32.5367    4.9847 C.ar    1  UNL1        0.0039
     17 C           3.5944   32.0461    5.2216 C.ar    1  UNL1        0.0726
     18 C           3.1957   31.8041    6.5461 C.ar    1  UNL1        0.0185
     19 C           2.6333   31.7555    4.0977 C.3     1  UNL1        0.4186
     20 F           1.3324   31.6858    4.4962 F       1  UNL1       -0.1659
     21 F           2.6712   32.7041    3.1205 F       1  UNL1       -0.1659
     22 F           2.8968   30.5715    3.4775 F       1  UNL1       -0.1659
@<TRIPOS>BOND
     1     9    10    2
     2    10    11    1
     3    10     3    1
     4    11    12    1
     5     3     4   ar
     6     3     8   ar
     7     4     5   ar
     8     5     6   ar
     9     6     7   ar
    10     7     8   ar
    11     8     1    1
    12     1    13    1
    13     1     2    1
    14    13    14   ar
    15    13    18   ar
    16    14    15   ar
    17    15    16   ar
    18    16    17   ar
    19    17    19    1
    20    17    18   ar
    21    19    20    1
    22    19    21    1
    23    19    22    1
#	Name:			CHEMBL633
#	Creating user name:	trannguyen
#	Creation time:		Tue Feb  8 18:26:14 2022


#	Modifying user name:	trannguyen
#	Modification time:	Tue Feb  8 18:26:14 2022

@<TRIPOS>MOLECULE
CHEMBL633
 31 33 0 0 0
SMALL
GASTEIGER

@<TRIPOS>ATOM
      1 C           4.7304   32.5617    7.3253 C.ar    1  UNL1        0.0401
      2 C           3.8017   32.3708    6.2973 C.ar    1  UNL1        0.0120
      3 C           4.2126   32.4310    4.9602 C.ar    1  UNL1        0.0645
      4 I           2.7027   32.1359    3.5007 I       1  UNL1       -0.0394
      5 C           5.5598   32.6894    4.5876 C.ar    1  UNL1        0.1491
      6 C           6.4614   32.9860    5.6245 C.ar    1  UNL1        0.0645
      7 I           8.5206   33.4663    5.5119 I       1  UNL1       -0.0394
      8 C           6.0408   32.9273    6.9685 C.ar    1  UNL1        0.0120
      9 C           4.3615   32.4148    8.7585 C.2     1  UNL1        0.1983
     10 O           4.0234   33.4331    9.3763 O.2     1  UNL1       -0.2865
     11 C           5.5914   30.5220    9.9175 C.ar    1  UNL1        0.1258
     12 O           5.3354   29.2591   10.3519 O.2     1  UNL1       -0.4577
     13 C           4.0184   29.0116   10.1532 C.ar    1  UNL1        0.1449
     14 C           3.3685   27.8253   10.4872 C.ar    1  UNL1        0.0375
     15 C           1.9939   27.7724   10.2448 C.ar    1  UNL1        0.0031
     16 C           1.3213   28.8636    9.6938 C.ar    1  UNL1        0.0002
     17 C           2.0087   30.0427    9.3657 C.ar    1  UNL1        0.0032
     18 C           3.3957   30.1180    9.5808 C.ar    1  UNL1        0.0403
     19 C           4.4441   31.1039    9.3849 C.ar    1  UNL1        0.0722
     20 C           6.9949   30.9781   10.1411 C.3     1  UNL1        0.0646
     21 C           7.1389   32.1030   11.1713 C.3     1  UNL1        0.0080
     22 C           8.7507   33.1071    9.5020 C.3     1  UNL1        0.0000
     23 C           7.7424   33.3934   10.6062 C.3     1  UNL1        0.0005
     24 O           5.8153   32.4926    3.2550 O.3     1  UNL1       -0.4731
     25 C           6.8490   31.6097    2.8475 C.3     1  UNL1        0.2227
     26 C           7.8919   32.3081    1.9520 C.3     1  UNL1        0.1200
     27 N           7.4214   32.8887    0.6833 N.3     1  UNL1       -0.2696
     28 C           7.8749   34.2775    0.5349 C.3     1  UNL1        0.0722
     29 C           7.9433   35.0672    1.8353 C.3     1  UNL1        0.0188
     30 C           7.7636   31.9960   -0.4407 C.3     1  UNL1        0.0722
     31 C           7.7007   32.5969   -1.8445 C.3     1  UNL1        0.0188
@<TRIPOS>BOND
     1    22    23    1
     2    23    21    1
     3    21    20    1
     4    20    11    1
     5    11    12   ar
     6    11    19   ar
     7    12    13   ar
     8    13    14   ar
     9    13    18   ar
    10    14    15   ar
    11    15    16   ar
    12    16    17   ar
    13    17    18   ar
    14    18    19   ar
    15    19     9    1
    16     9    10    2
    17     9     1    1
    18     1     2   ar
    19     1     8   ar
    20     2     3   ar
    21     3     4    1
    22     3     5   ar
    23     5    24    1
    24     5     6   ar
    25    24    25    1
    26    25    26    1
    27    26    27    1
    28    27    28    1
    29    27    30    1
    30    28    29    1
    31    30    31    1
    32     6     7    1
    33     6     8   ar
#	Name:			CHEMBL63560
#	Creating user name:	trannguyen
#	Creation time:		Tue Feb  8 18:26:14 2022


#	Modifying user name:	trannguyen
#	Modification time:	Tue Feb  8 18:26:14 2022

@<TRIPOS>MOLECULE
CHEMBL63560
 31 32 0 0 0
SMALL
GASTEIGER

@<TRIPOS>ATOM
      1 C           2.6418   32.1277    5.7461 C.2     1  UNL1        0.2519
      2 O           2.6283   31.0287    5.1960 O.2     1  UNL1       -0.2722
      3 N           2.4681   32.3515    7.1130 N.am    1  UNL1       -0.2820
      4 H           2.4060   33.3254    7.3997 H       1  UNL1        0.1549
      5 C           2.3476   31.3499    8.1168 C.ar    1  UNL1        0.0503
      6 C           1.1131   30.9329    8.6134 C.ar    1  UNL1        0.0153
      7 C           1.0202   29.9715    9.6246 C.ar    1  UNL1        0.0115
      8 C           2.1613   29.3617   10.1482 C.ar    1  UNL1        0.0724
      9 C           3.4223   29.7223    9.6428 C.ar    1  UNL1        0.0822
     10 C           3.4989   30.7294    8.6332 C.ar    1  UNL1        0.0192
     11 C           4.7012   29.0525   10.1003 C.3     1  UNL1        0.4192
     12 F           4.9905   29.1908   11.4199 F       1  UNL1       -0.1658
     13 F           4.6721   27.7091    9.8750 F       1  UNL1       -0.1658
     14 F           5.7942   29.5162    9.4344 F       1  UNL1       -0.1658
     15 C           1.9650   28.3789   11.1919 C.1     1  UNL1        0.1004
     16 N           1.7764   27.6242   12.0387 N.1     1  UNL1       -0.1908
     17 C           1.2843   33.6608    4.3152 C.3     1  UNL1        0.0406
     18 C           2.7044   33.4143    4.8721 C.3     1  UNL1        0.1789
     19 O           2.9919   34.5868    5.6397 O.3     1  UNL1       -0.3765
     20 H           3.9624   34.6568    5.7721 H       1  UNL1        0.2109
     21 C           3.6931   33.2274    3.6904 C.3     1  UNL1        0.1914
     22 S           5.3980   33.4030    4.1995 S.O2    1  UNL1        0.0115
     23 O           5.6178   34.8228    4.4234 O.2     1  UNL1       -0.1685
     24 O           5.7184   32.4523    5.2420 O.2     1  UNL1       -0.1685
     25 C           6.3764   32.9328    2.7782 C.ar    1  UNL1        0.1059
     26 C           6.9890   31.6717    2.7462 C.ar    1  UNL1        0.0206
     27 C           7.8445   31.3461    1.6888 C.ar    1  UNL1        0.0310
     28 C           8.0949   32.2838    0.6913 C.ar    1  UNL1        0.1402
     29 F           8.9228   31.9731   -0.3147 F       1  UNL1       -0.2042
     30 C           7.5073   33.5447    0.7298 C.ar    1  UNL1        0.0310
     31 C           6.6430   33.8755    1.7774 C.ar    1  UNL1        0.0206
@<TRIPOS>BOND
     1    18    21    1
     2    18     1    1
     3    18    19    1
     4    18    17    1
     5    19    20    1
     6    21    22    1
     7    22    23    2
     8    22    24    2
     9    22    25    1
    10    25    26   ar
    11    25    31   ar
    12    26    27   ar
    13    27    28   ar
    14    28    29    1
    15    28    30   ar
    16    30    31   ar
    17     1     2    2
    18     1     3   am
    19     3     5    1
    20     3     4    1
    21     5     6   ar
    22     5    10   ar
    23     6     7   ar
    24     7     8   ar
    25     8    15    1
    26     8     9   ar
    27    15    16    3
    28     9    11    1
    29     9    10   ar
    30    11    12    1
    31    11    13    1
    32    11    14    1
#	Name:			CHEMBL635
#	Creating user name:	trannguyen
#	Creation time:		Tue Feb  8 18:26:14 2022


#	Modifying user name:	trannguyen
#	Modification time:	Tue Feb  8 18:26:14 2022

@<TRIPOS>MOLECULE
CHEMBL635
 28 31 0 0 0
SMALL
GASTEIGER

@<TRIPOS>ATOM
      1 C           2.6339   33.0778    9.6936 C.3     1  UNL1        0.0032
      2 C           3.0669   31.6640    9.2639 C.3     1  UNL1        0.0359
      3 C           3.2981   31.6529    7.7379 C.3     1  UNL1        0.0672
      4 C           4.6227   32.2980    7.3655 C.2     1  UNL1        0.1509
      5 O           4.6482   33.3000    6.6591 O.2     1  UNL1       -0.2960
      6 C           5.8594   31.5957    7.9243 C.3     1  UNL1        0.0648
      7 C           5.7298   31.6959    9.4631 C.3     1  UNL1        0.0079
      8 C           6.0484   33.1243    9.9882 C.3     1  UNL1        0.0048
      9 C           6.9517   33.9530    9.0679 C.3     1  UNL1        0.0224
     10 C           7.9170   33.0257    8.3930 C.2     1  UNL1       -0.0375
     11 C           9.2088   32.9958    8.7644 C.2     1  UNL1        0.0338
     12 C          10.1006   31.9002    8.3295 C.2     1  UNL1        0.1948
     13 O          11.2992   31.9166    8.5663 O.2     1  UNL1       -0.2866
     14 C           9.4569   30.7374    7.6809 C.2     1  UNL1        0.0377
     15 C           8.1730   30.7883    7.2956 C.2     1  UNL1       -0.0193
     16 C           7.2839   32.0321    7.4160 C.3     1  UNL1        0.0404
     17 C           7.2819   32.6387    5.9970 C.3     1  UNL1        0.0089
     18 C           4.3687   31.1785    9.9934 C.3     1  UNL1        0.0035
     19 C           4.2732   29.6317    9.9339 C.3     1  UNL1        0.0030
     20 C           2.8049   29.2791    9.6651 C.3     1  UNL1        0.0342
     21 C           2.0504   30.6014    9.7930 C.3     1  UNL1        0.1417
     22 O           1.8906   30.8203   11.2209 O.3     1  UNL1       -0.3797
     23 H           1.0492   30.3875   11.4800 H       1  UNL1        0.2108
     24 C           0.6062   30.4866    9.2622 C.2     1  UNL1        0.2038
     25 O           0.0376   31.5012    8.8290 O.2     1  UNL1       -0.2910
     26 C          -0.1396   29.1713    9.2709 C.3     1  UNL1        0.2044
     27 O          -0.3606   28.7221   10.5926 O.3     1  UNL1       -0.3749
     28 H           0.5173   28.5483   10.9844 H       1  UNL1        0.2110
@<TRIPOS>BOND
     1     2     3    1
     2     2    18    1
     3     2    21    1
     4     2     1    1
     5     3     4    1
     6     4     6    1
     7     4     5    2
     8     6     7    1
     9     6    16    1
    10     7     8    1
    11     7    18    1
    12     8     9    1
    13     9    10    1
    14    10    11    2
    15    10    16    1
    16    11    12    1
    17    12    14    1
    18    12    13    2
    19    14    15    2
    20    15    16    1
    21    16    17    1
    22    18    19    1
    23    19    20    1
    24    20    21    1
    25    21    22    1
    26    21    24    1
    27    22    23    1
    28    24    25    2
    29    24    26    1
    30    26    27    1
    31    27    28    1
#	Name:			CHEMBL637
#	Creating user name:	trannguyen
#	Creation time:		Tue Feb  8 18:26:14 2022


#	Modifying user name:	trannguyen
#	Modification time:	Tue Feb  8 18:26:14 2022

@<TRIPOS>MOLECULE
CHEMBL637
 21 22 0 0 0
SMALL
GASTEIGER

@<TRIPOS>ATOM
      1 C           3.0315   33.1455    7.6355 C.3     1  UNL1        0.0629
      2 C           3.8140   33.0145    6.2471 C.3     1  UNL1        0.0933
      3 O           5.1970   33.3533    6.4715 O.3     1  UNL1       -0.3864
      4 C           3.7630   31.5811    5.6428 C.3     1  UNL1        0.0273
      5 C           2.4198   31.2093    5.0066 C.3     1  UNL1        0.0024
      6 C           1.9327   32.2543    4.0062 C.3     1  UNL1        0.0002
      7 C           1.9554   33.6595    4.5948 C.3     1  UNL1        0.0024
      8 C           3.3353   33.9926    5.1458 C.3     1  UNL1        0.0273
      9 H           5.6834   33.1999    5.6422 H       1  UNL1        0.2102
     10 C           3.2469   29.5215   10.0616 C.ar    1  UNL1        0.1387
     11 C           4.3920   30.2765    9.8337 C.ar    1  UNL1        0.0366
     12 C           4.3514   31.4234    9.0354 C.ar    1  UNL1       -0.0010
     13 C           3.1418   31.8552    8.4619 C.ar    1  UNL1       -0.0187
     14 C           1.9852   31.1036    8.7308 C.ar    1  UNL1       -0.0010
     15 C           2.0302   29.9489    9.5207 C.ar    1  UNL1        0.0366
     16 C           2.2459   27.5941   10.9867 C.3     1  UNL1        0.2525
     17 O           3.4043   28.4159   10.8490 O.3     1  UNL1       -0.4714
     18 C           3.4492   34.4263    8.4559 C.3     1  UNL1        0.0789
     19 N           2.6299   34.8682    9.6232 N.3     1  UNL1       -0.2699
     20 C           3.3066   34.7470   10.9153 C.3     1  UNL1        0.0897
     21 C           2.2536   36.2812    9.4470 C.3     1  UNL1        0.0897
@<TRIPOS>BOND
     1    16    17    1
     2    17    10    1
     3    10    11   ar
     4    10    15   ar
     5    11    12   ar
     6    12    13   ar
     7    13     1    1
     8    13    14   ar
     9     1    18    1
    10     1     2    1
    11    18    19    1
    12    19    20    1
    13    19    21    1
    14     2     3    1
    15     2     4    1
    16     2     8    1
    17     3     9    1
    18     4     5    1
    19     5     6    1
    20     6     7    1
    21     7     8    1
    22    14    15   ar
#	Name:			CHEMBL640
#	Creating user name:	trannguyen
#	Creation time:		Tue Feb  8 18:26:14 2022


#	Modifying user name:	trannguyen
#	Modification time:	Tue Feb  8 18:26:14 2022

@<TRIPOS>MOLECULE
CHEMBL640
 20 20 0 0 0
SMALL
GASTEIGER

@<TRIPOS>ATOM
      1 N           3.2536   32.1713    7.7099 N.am    1  UNL1       -0.2994
      2 C           2.1505   31.3474    7.7292 C.2     1  UNL1        0.2459
      3 O           1.2428   31.4067    6.8932 O.2     1  UNL1       -0.2701
      4 H           4.0107   32.0209    8.3672 H       1  UNL1        0.1498
      5 C           2.0937   30.3168    8.8146 C.ar    1  UNL1        0.0534
      6 C           3.2890   29.8913    9.4109 C.ar    1  UNL1        0.0058
      7 C           3.2737   28.9501   10.4511 C.ar    1  UNL1        0.0142
      8 C           2.0730   28.3830   10.8842 C.ar    1  UNL1        0.0415
      9 N           2.0342   27.5744   12.0257 N.pl3   1  UNL1       -0.3570
     10 C           0.8825   28.8247   10.3022 C.ar    1  UNL1        0.0142
     11 C           0.8878   29.7612    9.2572 C.ar    1  UNL1        0.0058
     12 H           2.8835   27.0447   12.1944 H       1  UNL1        0.1424
     13 H           1.2011   26.9986   12.0990 H       1  UNL1        0.1424
     14 C           3.4931   33.1911    6.6968 C.3     1  UNL1        0.1070
     15 C           4.7762   32.9355    5.8749 C.3     1  UNL1        0.0936
     16 N           4.5974   32.5940    4.4369 N.3     1  UNL1       -0.2712
     17 C           6.3079   30.9421    3.4785 C.3     1  UNL1        0.0188
     18 C           5.9426   32.3758    3.8527 C.3     1  UNL1        0.0722
     19 C           3.6731   31.4662    4.2288 C.3     1  UNL1        0.0722
     20 C           2.3882   31.7736    3.4632 C.3     1  UNL1        0.0188
@<TRIPOS>BOND
     1    17    18    1
     2    18    16    1
     3    16    19    1
     4    16    15    1
     5    19    20    1
     6    15    14    1
     7    14     1    1
     8     1     2   am
     9     1     4    1
    10     2     3    2
    11     2     5    1
    12     5     6   ar
    13     5    11   ar
    14     6     7   ar
    15     7     8   ar
    16     8     9    1
    17     8    10   ar
    18     9    12    1
    19     9    13    1
    20    10    11   ar
#	Name:			CHEMBL642
#	Creating user name:	trannguyen
#	Creation time:		Tue Feb  8 18:26:14 2022


#	Modifying user name:	trannguyen
#	Modification time:	Tue Feb  8 18:26:14 2022

@<TRIPOS>MOLECULE
CHEMBL642
 27 27 0 0 0
SMALL
GASTEIGER

@<TRIPOS>ATOM
      1 C           6.8019   32.7356    3.0460 C.ar    1  UNL1        0.0506
      2 C           7.3707   32.2944    4.2313 C.ar    1  UNL1        0.0178
      3 C           6.6020   32.0470    5.3633 C.ar    1  UNL1        0.0383
      4 C           5.2452   32.3541    5.3940 C.ar    1  UNL1        0.1414
      5 C           4.6449   32.8271    4.2147 C.ar    1  UNL1        0.0699
      6 C           5.4194   32.9885    3.0320 C.ar    1  UNL1        0.0205
      7 C           7.8136   31.8893    0.9179 C.2     1  UNL1        0.2261
      8 O           7.4538   30.7275    0.9733 O.2     1  UNL1       -0.2748
      9 N           7.5625   32.8968    1.8621 N.am    1  UNL1       -0.2839
     10 H           7.9335   33.8197    1.6799 H       1  UNL1        0.1549
     11 C           8.5831   32.4087   -0.2945 C.3     1  UNL1        0.0854
     12 C           7.7395   32.9111   -2.6286 C.3     1  UNL1        0.0005
     13 C           7.6693   33.2849   -1.1578 C.3     1  UNL1        0.0096
     14 C           3.1831   33.1559    4.1268 C.2     1  UNL1        0.1764
     15 C           2.2230   32.0953    3.6346 C.3     1  UNL1        0.0774
     16 O           2.7893   34.2493    4.5070 O.2     1  UNL1       -0.2912
     17 O           4.4927   32.1918    6.5275 O.3     1  UNL1       -0.4727
     18 C           4.9186   32.8790    7.7162 C.3     1  UNL1        0.2358
     19 C           3.7274   33.5587    8.4031 C.3     1  UNL1        0.1697
     20 O           3.0622   34.4241    7.4734 O.3     1  UNL1       -0.3793
     21 H           2.5363   33.8390    6.8943 H       1  UNL1        0.2106
     22 C           2.7035   32.5408    8.9627 C.3     1  UNL1        0.1020
     23 N           3.2553   31.6750   10.0275 N.3     1  UNL1       -0.2964
     24 H           2.7422   31.8087   10.8980 H       1  UNL1        0.1233
     25 C           3.2011   30.2447    9.6597 C.3     1  UNL1        0.0541
     26 C           4.5344   29.5594    9.9607 C.3     1  UNL1        0.0171
     27 C           2.0844   29.5472   10.4457 C.3     1  UNL1        0.0171
@<TRIPOS>BOND
     1    12    13    1
     2    13    11    1
     3    11     7    1
     4     7     8    2
     5     7     9   am
     6     9     1    1
     7     9    10    1
     8     1     2   ar
     9     1     6   ar
    10     2     3   ar
    11     3     4   ar
    12     4    17    1
    13     4     5   ar
    14    17    18    1
    15    18    19    1
    16    19    20    1
    17    19    22    1
    18    20    21    1
    19    22    23    1
    20    23    25    1
    21    23    24    1
    22    25    26    1
    23    25    27    1
    24     5    14    1
    25     5     6   ar
    26    14    15    1
    27    14    16    2
#	Name:			CHEMBL6437
#	Creating user name:	trannguyen
#	Creation time:		Tue Feb  8 18:26:14 2022


#	Modifying user name:	trannguyen
#	Modification time:	Tue Feb  8 18:26:14 2022

@<TRIPOS>MOLECULE
CHEMBL6437
 20 23 0 0 0
SMALL
GASTEIGER

@<TRIPOS>ATOM
      1 C           7.4775   34.3661    9.6917 C.3     1  UNL1        0.0897
      2 N           6.2064   34.2341    8.9682 N.3     1  UNL1       -0.2683
      3 C           5.2134   33.8024    9.9732 C.3     1  UNL1        0.0939
      4 C           3.9887   33.2759    9.2764 C.3     1  UNL1        0.1083
      5 N           4.4650   32.0392    8.6726 N.pl3   1  UNL1       -0.3029
      6 C           3.8223   30.8826    9.0097 C.ar    1  UNL1        0.0444
      7 C           4.4886   29.9447    9.7912 C.ar    1  UNL1        0.0142
      8 C           3.7670   28.9679   10.4403 C.ar    1  UNL1        0.0012
      9 C           2.3682   28.9301   10.2827 C.ar    1  UNL1       -0.0002
     10 C           1.7382   29.8061    9.3988 C.ar    1  UNL1       -0.0027
     11 C           2.4708   30.7611    8.7084 C.ar    1  UNL1       -0.0045
     12 C           1.8862   31.7635    7.7337 C.3     1  UNL1        0.0536
     13 C           2.6511   31.9142    6.4079 C.ar    1  UNL1       -0.0201
     14 C           1.8248   31.7368    5.2678 C.ar    1  UNL1       -0.0042
     15 C           2.3577   31.6158    3.9939 C.ar    1  UNL1       -0.0003
     16 C           3.7306   31.7237    3.8276 C.ar    1  UNL1       -0.0003
     17 C           4.5715   32.0124    4.9223 C.ar    1  UNL1       -0.0029
     18 C           4.0785   32.1378    6.2458 C.ar    1  UNL1       -0.0066
     19 C           5.1245   32.1902    7.4105 C.3     1  UNL1        0.1111
     20 C           6.2667   33.3426    7.7140 C.3     1  UNL1        0.0967
@<TRIPOS>BOND
     1     1     2    1
     2     2     3    1
     3     2    20    1
     4     3     4    1
     5     4     5    1
     6     5     6    1
     7     5    19    1
     8     6     7   ar
     9     6    11   ar
    10     7     8   ar
    11     8     9   ar
    12     9    10   ar
    13    10    11   ar
    14    11    12    1
    15    12    13    1
    16    13    14   ar
    17    13    18   ar
    18    14    15   ar
    19    15    16   ar
    20    16    17   ar
    21    17    18   ar
    22    18    19    1
    23    19    20    1
#	Name:			CHEMBL64391
#	Creating user name:	trannguyen
#	Creation time:		Tue Feb  8 18:26:14 2022


#	Modifying user name:	trannguyen
#	Modification time:	Tue Feb  8 18:26:14 2022

@<TRIPOS>MOLECULE
CHEMBL64391
 49 55 0 0 0
SMALL
GASTEIGER

@<TRIPOS>ATOM
      1 C           8.1562   33.9227   -2.0416 C.ar    1  UNL1        0.0481
      2 C           8.5349   32.9950   -2.9997 C.ar    1  UNL1        0.0176
      3 C           9.5228   33.3038   -3.9237 C.ar    1  UNL1        0.0382
      4 C          10.1212   34.5615   -3.9650 C.ar    1  UNL1        0.1388
      5 C           9.7119   35.5228   -3.0550 C.ar    1  UNL1        0.0382
      6 C           8.7783   35.1798   -2.0773 C.ar    1  UNL1        0.0176
      7 N           7.9909   33.4117    1.7721 N.pl3   1  UNL1       -0.3041
      8 C           8.4089   32.3492    0.8275 C.3     1  UNL1        0.1122
      9 C           7.5003   32.2349   -0.4288 C.3     1  UNL1        0.1122
     10 N           7.2415   33.5326   -1.0684 N.pl3   1  UNL1       -0.3041
     11 C           6.8145   34.5936   -0.1103 C.3     1  UNL1        0.1122
     12 C           7.8049   34.7177    1.0764 C.3     1  UNL1        0.1122
     13 C           4.9681   32.3684    4.5355 C.ar    1  UNL1        0.0699
     14 C           5.7323   31.3910    3.8920 C.ar    1  UNL1        0.0190
     15 C           6.7587   31.7378    3.0072 C.ar    1  UNL1        0.0160
     16 C           7.0045   33.0736    2.6956 C.ar    1  UNL1        0.0480
     17 C           6.2034   34.0271    3.3252 C.ar    1  UNL1        0.0160
     18 C           5.2293   33.7031    4.2523 C.ar    1  UNL1        0.0190
     19 N           2.7492   31.6991    7.2516 N.ar    1  UNL1       -0.2024
     20 N           2.0512   31.1505    6.2027 N.ar    1  UNL1       -0.1442
     21 C           2.8033   31.3884    5.1756 C.ar    1  UNL1        0.2073
     22 N           3.9481   32.0438    5.4307 N.ar    1  UNL1       -0.2398
     23 C           3.9562   32.2701    6.8039 C.ar    1  UNL1        0.3522
     24 O           4.8140   32.7598    7.4896 O.2     1  UNL1       -0.2444
     25 C           2.3463   31.5005    8.6330 C.3     1  UNL1        0.1099
     26 C           3.0068   30.2509    9.2177 C.3     1  UNL1        0.0265
     27 C           0.3006   30.0602    9.2169 C.3     1  UNL1        0.0021
     28 C           0.8145   31.4299    8.7875 C.3     1  UNL1        0.0245
     29 O          11.1002   34.9152   -4.8521 O.3     1  UNL1       -0.4727
     30 C          10.7492   34.7558   -6.2369 C.3     1  UNL1        0.2374
     31 C           9.8098   35.8645   -6.7265 C.3     1  UNL1        0.1909
     32 C          10.0852   36.2677   -8.1451 C.3     1  UNL1        0.1783
     33 O           8.8527   36.8006   -8.5955 O.3     1  UNL1       -0.3266
     34 C           7.8126   36.2956   -7.7519 C.3     1  UNL1        0.2315
     35 O           8.4205   35.5172   -6.6841 O.3     1  UNL1       -0.3254
     36 C           7.0334   37.5089   -7.1744 C.ar    1  UNL1        0.0410
     37 C           6.8655   37.6348   -5.7752 C.ar    1  UNL1        0.0022
     38 C           6.2128   38.7414   -5.2019 C.ar    1  UNL1        0.0113
     39 C           5.6947   39.7445   -6.0111 C.ar    1  UNL1        0.0585
     40 CL          4.9085   41.1069   -5.3125 Cl      1  UNL1       -0.0822
     41 C           5.8108   39.6441   -7.3885 C.ar    1  UNL1        0.0226
     42 C           6.4675   38.5418   -7.9672 C.ar    1  UNL1        0.0591
     43 CL          6.5021   38.5670   -9.6985 Cl      1  UNL1       -0.0824
     44 C           6.8930   35.3385   -8.5385 C.3     1  UNL1        0.1897
     45 N           7.2347   33.9415   -8.3072 N.ar    1  UNL1       -0.2246
     46 C           8.2412   33.2074   -8.8617 C.ar    1  UNL1        0.1974
     47 N           8.1664   31.9653   -8.4382 N.ar    1  UNL1       -0.2007
     48 C           7.0885   31.9901   -7.6024 C.ar    1  UNL1        0.2210
     49 N           6.4994   33.1805   -7.4731 N.ar    1  UNL1       -0.1450
@<TRIPOS>BOND
     1    27    28    1
     2    28    25    1
     3    25    26    1
     4    25    19    1
     5    19    20   ar
     6    19    23   ar
     7    20    21   ar
     8    21    22   ar
     9    22    13    1
    10    22    23   ar
    11    13    14   ar
    12    13    18   ar
    13    14    15   ar
    14    15    16   ar
    15    16     7    1
    16    16    17   ar
    17     7     8    1
    18     7    12    1
    19     8     9    1
    20     9    10    1
    21    10     1    1
    22    10    11    1
    23     1     2   ar
    24     1     6   ar
    25     2     3   ar
    26     3     4   ar
    27     4    29    1
    28     4     5   ar
    29    29    30    1
    30    30    31    1
    31    31    32    1
    32    31    35    1
    33    32    33    1
    34    33    34    1
    35    34    44    1
    36    34    36    1
    37    34    35    1
    38    44    45    1
    39    45    46   ar
    40    45    49   ar
    41    46    47   ar
    42    47    48   ar
    43    48    49   ar
    44    36    37   ar
    45    36    42   ar
    46    37    38   ar
    47    38    39   ar
    48    39    40    1
    49    39    41   ar
    50    41    42   ar
    51    42    43    1
    52     5     6   ar
    53    11    12    1
    54    17    18   ar
    55    23    24    2
#	Name:			CHEMBL643
#	Creating user name:	trannguyen
#	Creation time:		Tue Feb  8 18:26:14 2022


#	Modifying user name:	trannguyen
#	Modification time:	Tue Feb  8 18:26:14 2022

@<TRIPOS>MOLECULE
CHEMBL643
 20 22 0 0 0
SMALL
GASTEIGER

@<TRIPOS>ATOM
      1 N           3.4842   31.6889    8.5352 N.pl3   1  UNL1       -0.2847
      2 C           4.8170   31.7524    9.0196 C.ar    1  UNL1        0.0577
      3 C           5.6438   32.8752    8.8124 C.ar    1  UNL1        0.0153
      4 C           6.9371   32.9646    9.3417 C.ar    1  UNL1        0.0013
      5 C           7.4386   31.9392   10.1321 C.ar    1  UNL1        0.0006
      6 C           6.6494   30.8212   10.3667 C.ar    1  UNL1        0.0077
      7 C           5.3613   30.7143    9.8114 C.ar    1  UNL1        0.0431
      8 S           4.5110   29.1758   10.1027 S.3     1  UNL1       -0.0844
      9 C           2.8334   29.6146    9.7168 C.ar    1  UNL1        0.0431
     10 C           1.8424   28.6908   10.0903 C.ar    1  UNL1        0.0077
     11 C           0.4962   28.9547    9.8691 C.ar    1  UNL1        0.0006
     12 C           0.1284   30.1752    9.3161 C.ar    1  UNL1        0.0013
     13 C           1.1128   31.0883    8.9282 C.ar    1  UNL1        0.0153
     14 C           2.4892   30.8095    9.0499 C.ar    1  UNL1        0.0577
     15 C           3.1166   32.4846    7.3224 C.3     1  UNL1        0.1114
     16 C           4.5840   32.8423    5.2518 C.3     1  UNL1        0.0192
     17 C           3.6317   31.8724    5.9720 C.3     1  UNL1        0.0778
     18 N           2.5841   31.3731    5.0351 N.3     1  UNL1       -0.2700
     19 C           1.4939   32.3290    4.8456 C.3     1  UNL1        0.0897
     20 C           3.0655   30.8903    3.7440 C.3     1  UNL1        0.0897
@<TRIPOS>BOND
     1    16    17    1
     2    17    15    1
     3    17    18    1
     4    15     1    1
     5     1     2    1
     6     1    14    1
     7     2     3   ar
     8     2     7   ar
     9     3     4   ar
    10     4     5   ar
    11     5     6   ar
    12     6     7   ar
    13     7     8    1
    14     8     9    1
    15     9    10   ar
    16     9    14   ar
    17    10    11   ar
    18    11    12   ar
    19    12    13   ar
    20    13    14   ar
    21    18    19    1
    22    18    20    1
#	Name:			CHEMBL6466
#	Creating user name:	trannguyen
#	Creation time:		Tue Feb  8 18:26:14 2022


#	Modifying user name:	trannguyen
#	Modification time:	Tue Feb  8 18:26:14 2022

@<TRIPOS>MOLECULE
CHEMBL6466
 11 12 0 0 0
SMALL
GASTEIGER

@<TRIPOS>ATOM
      1 O           2.1999   26.6639   11.4090 O.2     1  UNL1       -0.2445
      2 C           2.4637   27.7097   10.8301 C.ar    1  UNL1        0.3459
      3 C           3.8612   28.0682   10.5261 C.ar    1  UNL1        0.0824
      4 C           4.1886   29.1767    9.8556 C.ar    1  UNL1        0.0097
      5 C           3.1364   30.0608    9.3820 C.ar    1  UNL1        0.0349
      6 C           3.4084   31.1893    8.6065 C.ar    1  UNL1        0.0030
      7 C           2.3583   31.9909    8.1464 C.ar    1  UNL1        0.0002
      8 C           1.0365   31.6790    8.4742 C.ar    1  UNL1        0.0031
      9 C           0.7583   30.5620    9.2596 C.ar    1  UNL1        0.0376
     10 C           1.8116   29.7612    9.6947 C.ar    1  UNL1        0.1487
     11 O           1.4838   28.6133   10.4417 O.2     1  UNL1       -0.4210
@<TRIPOS>BOND
     1     1     2    2
     2     2     3   ar
     3     2    11   ar
     4     3     4   ar
     5     4     5   ar
     6     5     6   ar
     7     5    10   ar
     8     6     7   ar
     9     7     8   ar
    10     8     9   ar
    11     9    10   ar
    12    10    11   ar
#	Name:			CHEMBL64894
#	Creating user name:	trannguyen
#	Creation time:		Tue Feb  8 18:26:14 2022


#	Modifying user name:	trannguyen
#	Modification time:	Tue Feb  8 18:26:14 2022

@<TRIPOS>MOLECULE
CHEMBL64894
 28 30 0 0 0
SMALL
GASTEIGER

@<TRIPOS>ATOM
      1 C           6.9607   32.2400    6.6722 C.2     1  UNL1        0.0000
      2 C           5.7828   32.1369    7.3480 C.2     1  UNL1        0.0001
      3 C           4.4918   32.3354    6.6822 C.2     1  UNL1        0.0015
      4 C           3.3413   31.9707    7.2584 C.2     1  UNL1        0.0169
      5 C           3.3345   31.3328    8.6173 C.2     1  UNL1        0.0561
      6 N           2.3211   30.6604    9.0720 N.2     1  UNL1       -0.3440
      7 C           1.0802   30.4221    8.2737 C.3     1  UNL1        0.1255
      8 C           2.2934   30.0906   10.4536 C.3     1  UNL1        0.1255
      9 C           4.6000   31.5290    9.4033 C.2     1  UNL1        0.0169
     10 C           5.7309   31.9020    8.7935 C.2     1  UNL1        0.0015
     11 C           7.0282   32.9623    2.3918 C.ar    1  UNL1        0.0479
     12 C           6.8024   31.6809    2.9283 C.ar    1  UNL1        0.0145
     13 C           6.7625   31.4416    4.3095 C.ar    1  UNL1        0.0013
     14 C           6.9703   32.4855    5.2084 C.ar    1  UNL1        0.0001
     15 C           7.2089   33.7649    4.7096 C.ar    1  UNL1        0.0013
     16 C           7.2460   33.9901    3.3271 C.ar    1  UNL1        0.0145
     17 C           7.1219   34.5729    0.5424 C.3     1  UNL1        0.1122
     18 N           7.0832   33.1848    1.0075 N.pl3   1  UNL1       -0.3041
     19 C           7.8277   32.2401    0.1750 C.3     1  UNL1        0.1122
     20 C           8.2570   32.0350    7.3630 C.ar    1  UNL1        0.0001
     21 C           8.9602   33.1146    7.8908 C.ar    1  UNL1        0.0013
     22 C          10.2169   32.9173    8.4731 C.ar    1  UNL1        0.0145
     23 C          10.8302   31.6536    8.5239 C.ar    1  UNL1        0.0479
     24 C          10.0652   30.5756    8.0411 C.ar    1  UNL1        0.0145
     25 C           8.8063   30.7583    7.4591 C.ar    1  UNL1        0.0013
     26 N          12.1209   31.4800    9.0581 N.pl3   1  UNL1       -0.3041
     27 C          13.1409   30.9321    8.1566 C.3     1  UNL1        0.1122
     28 C          12.2017   30.9681   10.4283 C.3     1  UNL1        0.1122
@<TRIPOS>BOND
     1    17    18    1
     2    18    19    1
     3    18    11    1
     4    11    12   ar
     5    11    16   ar
     6    12    13   ar
     7    13    14   ar
     8    14     1    1
     9    14    15   ar
    10     1     2    2
    11     1    20    1
    12     2     3    1
    13     2    10    1
    14     3     4    2
    15     4     5    1
    16     5     6    2
    17     5     9    1
    18     6     7    1
    19     6     8    1
    20     9    10    2
    21    20    21   ar
    22    20    25   ar
    23    21    22   ar
    24    22    23   ar
    25    23    26    1
    26    23    24   ar
    27    26    27    1
    28    26    28    1
    29    24    25   ar
    30    15    16   ar
#	Name:			CHEMBL648
#	Creating user name:	trannguyen
#	Creation time:		Tue Feb  8 18:26:14 2022


#	Modifying user name:	trannguyen
#	Modification time:	Tue Feb  8 18:26:14 2022

@<TRIPOS>MOLECULE
CHEMBL648
 20 22 0 0 0
SMALL
GASTEIGER

@<TRIPOS>ATOM
      1 C           3.3551   31.6442    7.9277 C.3     1  UNL1        0.1031
      2 C           3.0378   32.8293    3.1768 C.3     1  UNL1        0.0897
      3 N           3.8561   32.2061    4.2170 N.3     1  UNL1       -0.2691
      4 C           4.2152   33.1734    5.2717 C.3     1  UNL1        0.0897
      5 C           3.0886   33.4872    6.2856 C.3     1  UNL1        0.0901
      6 N           2.4588   32.3030    6.9225 N.3     1  UNL1       -0.2644
      7 C           2.0522   31.3898    5.8248 C.3     1  UNL1        0.0901
      8 C           3.1714   31.0417    4.8126 C.3     1  UNL1        0.0897
      9 C           4.1563   32.6390    8.7903 C.ar    1  UNL1       -0.0036
     10 C           3.5300   33.5840    9.6209 C.ar    1  UNL1       -0.0026
     11 C           4.2789   34.5045   10.3578 C.ar    1  UNL1       -0.0003
     12 C           5.6709   34.4745   10.3020 C.ar    1  UNL1       -0.0000
     13 C           6.3118   33.5206    9.5176 C.ar    1  UNL1       -0.0003
     14 C           5.5617   32.6086    8.7681 C.ar    1  UNL1       -0.0026
     15 C           2.5961   30.6550    8.8272 C.ar    1  UNL1       -0.0036
     16 C           3.3065   29.7675    9.6558 C.ar    1  UNL1       -0.0026
     17 C           2.6350   28.8072   10.4156 C.ar    1  UNL1       -0.0003
     18 C           1.2450   28.7262   10.3677 C.ar    1  UNL1       -0.0000
     19 C           0.5240   29.6085    9.5670 C.ar    1  UNL1       -0.0003
     20 C           1.1937   30.5650    8.8017 C.ar    1  UNL1       -0.0026
@<TRIPOS>BOND
     1     2     3    1
     2     3     4    1
     3     3     8    1
     4     4     5    1
     5     5     6    1
     6     6     1    1
     7     6     7    1
     8     1     9    1
     9     1    15    1
    10     9    10   ar
    11     9    14   ar
    12    10    11   ar
    13    11    12   ar
    14    12    13   ar
    15    13    14   ar
    16    15    16   ar
    17    15    20   ar
    18    16    17   ar
    19    17    18   ar
    20    18    19   ar
    21    19    20   ar
    22     7     8    1
#	Name:			CHEMBL649
#	Creating user name:	trannguyen
#	Creation time:		Tue Feb  8 18:26:14 2022


#	Modifying user name:	trannguyen
#	Modification time:	Tue Feb  8 18:26:14 2022

@<TRIPOS>MOLECULE
CHEMBL649
 26 27 0 0 0
SMALL
GASTEIGER

@<TRIPOS>ATOM
      1 C           3.4662   31.4793    9.3943 C.ar    1  UNL1        0.1344
      2 C           4.8323   31.7062    9.2013 C.ar    1  UNL1        0.0366
      3 C           5.7414   30.6624    9.3886 C.ar    1  UNL1        0.0028
      4 C           5.3032   29.4060    9.7941 C.ar    1  UNL1       -0.0043
      5 C           3.9444   29.1665   10.0217 C.ar    1  UNL1       -0.0207
      6 C           3.0170   30.2065    9.8071 C.ar    1  UNL1        0.0104
      7 C           1.5402   29.9727   10.0577 C.3     1  UNL1        0.0608
      8 C           1.1443   28.4971   10.0875 C.3     1  UNL1        0.1419
      9 O          -0.1812   28.3563   10.6165 O.3     1  UNL1       -0.3816
     10 C           2.0970   27.6833   10.9643 C.3     1  UNL1        0.1418
     11 O           2.0418   28.1374   12.3223 O.3     1  UNL1       -0.3816
     12 C           3.5246   27.7732   10.4324 C.3     1  UNL1        0.0578
     13 H          -0.7836   28.8106   10.0014 H       1  UNL1        0.2105
     14 H           1.0903   28.2640   12.5092 H       1  UNL1        0.2105
     15 O           2.4911   32.4334    9.2658 O.3     1  UNL1       -0.4731
     16 C           2.3560   33.4310   10.2836 C.3     1  UNL1        0.2357
     17 C           3.3905   34.5588   10.0703 C.3     1  UNL1        0.1697
     18 O           4.0489   34.8735   11.3052 O.3     1  UNL1       -0.3793
     19 H           4.8496   35.3707   11.0660 H       1  UNL1        0.2106
     20 C           2.7286   35.8283    9.4916 C.3     1  UNL1        0.1020
     21 N           2.1706   36.6932   10.5531 N.3     1  UNL1       -0.2975
     22 H           1.9612   36.1052   11.3604 H       1  UNL1        0.1232
     23 C           0.7670   38.5848   11.1761 C.3     1  UNL1        0.0158
     24 C           0.9326   37.4179   10.1796 C.3     1  UNL1        0.0421
     25 C          -0.3086   36.5157   10.2969 C.3     1  UNL1        0.0158
     26 C           1.0153   38.0108    8.7630 C.3     1  UNL1        0.0158
@<TRIPOS>BOND
     1    23    24    1
     2    24    25    1
     3    24    26    1
     4    24    21    1
     5    21    20    1
     6    21    22    1
     7    20    17    1
     8    17    18    1
     9    17    16    1
    10    18    19    1
    11    16    15    1
    12    15     1    1
    13     1     2   ar
    14     1     6   ar
    15     2     3   ar
    16     3     4   ar
    17     4     5   ar
    18     5     6   ar
    19     5    12    1
    20     6     7    1
    21     7     8    1
    22     8     9    1
    23     8    10    1
    24     9    13    1
    25    10    12    1
    26    10    11    1
    27    11    14    1
#	Name:			CHEMBL64
#	Creating user name:	trannguyen
#	Creation time:		Tue Feb  8 18:26:14 2022


#	Modifying user name:	trannguyen
#	Modification time:	Tue Feb  8 18:26:14 2022

@<TRIPOS>MOLECULE
CHEMBL64
 13 13 0 0 0
SMALL
GASTEIGER

@<TRIPOS>ATOM
      1 N           0.2209   32.3435    8.6863 N.3     1  UNL1       -0.2541
      2 N           0.9376   31.1388    8.8587 N.am    1  UNL1       -0.2495
      3 C           1.8398   31.0365    9.9112 C.2     1  UNL1        0.2587
      4 O           2.0660   31.9593   10.6905 O.2     1  UNL1       -0.2689
      5 H           0.8563   33.0128    8.2398 H       1  UNL1        0.1405
      6 H           0.0890   32.7467    9.6244 H       1  UNL1        0.1405
      7 H           0.6068   30.3115    8.3683 H       1  UNL1        0.1690
      8 C           2.5135   29.7233   10.0839 C.ar    1  UNL1        0.0577
      9 C           1.7685   28.6624   10.6002 C.ar    1  UNL1        0.0252
     10 C           2.4009   27.4453   10.7689 C.ar    1  UNL1        0.0990
     11 N           3.6996   27.2305   10.4683 N.ar    1  UNL1       -0.2423
     12 C           4.4026   28.2787    9.9903 C.ar    1  UNL1        0.0990
     13 C           3.8631   29.5358    9.7821 C.ar    1  UNL1        0.0252
@<TRIPOS>BOND
     1     1     2    1
     2     1     5    1
     3     1     6    1
     4     2     3   am
     5     2     7    1
     6     3     4    2
     7     3     8    1
     8     8     9   ar
     9     8    13   ar
    10     9    10   ar
    11    10    11   ar
    12    11    12   ar
    13    12    13   ar
#	Name:			CHEMBL650
#	Creating user name:	trannguyen
#	Creation time:		Tue Feb  8 18:26:14 2022


#	Modifying user name:	trannguyen
#	Modification time:	Tue Feb  8 18:26:14 2022

@<TRIPOS>MOLECULE
CHEMBL650
 30 33 0 0 0
SMALL
GASTEIGER

@<TRIPOS>ATOM
      1 C           3.0154   31.3292    4.7467 C.3     1  UNL1        0.0044
      2 C           3.8838   31.5741    5.9889 C.3     1  UNL1        0.0187
      3 C           4.7774   32.7939    5.7465 C.3     1  UNL1        0.0041
      4 C           5.8149   33.0259    6.8644 C.3     1  UNL1        0.0033
      5 C           7.0114   32.0378    6.7859 C.3     1  UNL1        0.0029
      6 C           7.8886   32.3182    5.5398 C.3     1  UNL1        0.0029
      7 C           9.2231   32.8914    6.0255 C.3     1  UNL1        0.0342
      8 C           9.0426   33.1746    7.5231 C.3     1  UNL1        0.1413
      9 O           8.4615   34.4724    7.6354 O.3     1  UNL1       -0.3797
     10 C           8.0189   32.0833    7.9738 C.3     1  UNL1        0.0313
     11 C           8.6999   30.6897    8.0891 C.3     1  UNL1        0.0028
     12 C           7.3506   32.3663    9.3311 C.3     1  UNL1        0.0319
     13 C           6.1994   33.3672    9.3304 C.3     1  UNL1        0.1111
     14 O           5.6565   33.3898   10.6467 O.3     1  UNL1       -0.3844
     15 C           5.1219   33.1103    8.2497 C.3     1  UNL1        0.0341
     16 C           4.0174   32.0101    8.5484 C.3     1  UNL1        0.0361
     17 C           4.5942   30.6561    9.0054 C.3     1  UNL1        0.0085
     18 C           3.0681   32.5437    9.6537 C.2     1  UNL1       -0.0197
     19 C           1.9390   31.8587    9.9269 C.2     1  UNL1        0.0377
     20 C           1.0745   31.7969    8.7038 C.2     1  UNL1        0.1948
     21 O          -0.1450   31.7278    8.7798 O.2     1  UNL1       -0.2866
     22 C           1.7842   31.7104    7.3931 C.2     1  UNL1        0.0338
     23 C           3.1332   31.7612    7.2968 C.2     1  UNL1       -0.0381
     24 H           9.1141   35.1266    7.3137 H       1  UNL1        0.2108
     25 H           5.0572   34.1538   10.7061 H       1  UNL1        0.2103
     26 C          10.3972   33.1093    8.2728 C.2     1  UNL1        0.2038
     27 O          11.4049   32.5910    7.7828 O.2     1  UNL1       -0.2910
     28 C          10.4822   33.7883    9.6294 C.3     1  UNL1        0.2044
     29 O          11.1241   32.9180   10.5503 O.3     1  UNL1       -0.3749
     30 H          10.5043   32.1801   10.7066 H       1  UNL1        0.2110
@<TRIPOS>BOND
     1     1     2    1
     2     2     3    1
     3     2    23    1
     4     3     4    1
     5     4     5    1
     6     4    15    1
     7     5     6    1
     8     5    10    1
     9     6     7    1
    10     7     8    1
    11     8    10    1
    12     8    26    1
    13     8     9    1
    14     9    24    1
    15    26    27    2
    16    26    28    1
    17    28    29    1
    18    29    30    1
    19    10    12    1
    20    10    11    1
    21    12    13    1
    22    13    15    1
    23    13    14    1
    24    14    25    1
    25    15    16    1
    26    16    18    1
    27    16    23    1
    28    16    17    1
    29    18    19    2
    30    19    20    1
    31    20    22    1
    32    20    21    2
    33    22    23    2
#	Name:			CHEMBL657
#	Creating user name:	trannguyen
#	Creation time:		Tue Feb  8 18:26:14 2022


#	Modifying user name:	trannguyen
#	Modification time:	Tue Feb  8 18:26:14 2022

@<TRIPOS>MOLECULE
CHEMBL657
 19 20 0 0 0
SMALL
GASTEIGER

@<TRIPOS>ATOM
      1 C           2.0960   31.5399    8.8708 C.3     1  UNL1        0.1598
      2 C           2.5812   31.8083    7.4467 C.ar    1  UNL1        0.0087
      3 C           3.6212   32.7274    7.2065 C.ar    1  UNL1       -0.0016
      4 C           4.0948   32.9498    5.9098 C.ar    1  UNL1       -0.0002
      5 C           3.5425   32.2615    4.8335 C.ar    1  UNL1       -0.0000
      6 C           2.4910   31.3730    5.0486 C.ar    1  UNL1       -0.0002
      7 C           2.0068   31.1617    6.3405 C.ar    1  UNL1       -0.0016
      8 C           2.5873   30.1954    9.3967 C.ar    1  UNL1        0.0087
      9 C           1.6668   29.1921    9.7448 C.ar    1  UNL1       -0.0016
     10 C           2.1134   27.9483   10.2042 C.ar    1  UNL1       -0.0002
     11 C           3.4744   27.7023   10.3502 C.ar    1  UNL1       -0.0000
     12 C           4.3999   28.6934   10.0307 C.ar    1  UNL1       -0.0002
     13 C           3.9564   29.9259    9.5422 C.ar    1  UNL1       -0.0016
     14 O           2.5266   32.6315    9.7102 O.3     1  UNL1       -0.3459
     15 C           1.4539   33.4213   10.2363 C.3     1  UNL1        0.1602
     16 C           1.9231   34.8873   10.2919 C.3     1  UNL1        0.1047
     17 C           0.9072   37.0724    9.8903 C.3     1  UNL1        0.0897
     18 N           0.9023   35.8652   10.7192 N.3     1  UNL1       -0.2682
     19 C          -0.4266   35.2440   10.6638 C.3     1  UNL1        0.0897
@<TRIPOS>BOND
     1    17    18    1
     2    18    19    1
     3    18    16    1
     4    16    15    1
     5    15    14    1
     6    14     1    1
     7     1     2    1
     8     1     8    1
     9     2     3   ar
    10     2     7   ar
    11     3     4   ar
    12     4     5   ar
    13     5     6   ar
    14     6     7   ar
    15     8     9   ar
    16     8    13   ar
    17     9    10   ar
    18    10    11   ar
    19    11    12   ar
    20    12    13   ar
#	Name:			CHEMBL659
#	Creating user name:	trannguyen
#	Creation time:		Tue Feb  8 18:26:14 2022


#	Modifying user name:	trannguyen
#	Modification time:	Tue Feb  8 18:26:14 2022

@<TRIPOS>MOLECULE
CHEMBL659
 22 25 0 0 0
SMALL
GASTEIGER

@<TRIPOS>ATOM
      1 C           6.4999   32.0126    9.5712 C.ar    1  UNL1        0.1721
      2 C           6.6130   30.8070   10.2688 C.ar    1  UNL1        0.0397
      3 C           5.5349   29.9106   10.3595 C.ar    1  UNL1        0.0001
      4 C           4.3009   30.1910    9.7512 C.ar    1  UNL1       -0.0066
      5 C           4.1971   31.3964    9.0648 C.ar    1  UNL1        0.0187
      6 C           5.2737   32.2895    8.9877 C.ar    1  UNL1        0.1682
      7 O           4.9664   33.4180    8.2630 O.3     1  UNL1       -0.4757
      8 C           3.5159   33.4175    8.2303 C.3     1  UNL1        0.1761
      9 C           3.0353   34.1740    6.9908 C.3     1  UNL1        0.0779
     10 C           3.3843   33.4424    5.6947 C.3     1  UNL1        0.1358
     11 O           4.7565   33.6231    5.3729 O.3     1  UNL1       -0.3799
     12 C           3.1307   31.9712    5.7643 C.2     1  UNL1       -0.0015
     13 C           2.9554   31.2978    6.9123 C.2     1  UNL1       -0.0213
     14 C           3.0337   31.9360    8.2913 C.3     1  UNL1        0.0780
     15 C           1.6946   31.8596    9.0436 C.3     1  UNL1        0.0290
     16 C           1.1475   30.4570    9.3297 C.3     1  UNL1        0.0732
     17 N           1.9173   29.7049   10.3333 N.3     1  UNL1       -0.2677
     18 C           1.1023   28.5894   10.8312 C.3     1  UNL1        0.0899
     19 C           3.1831   29.1786    9.7940 C.3     1  UNL1        0.0990
     20 H           5.2677   33.3173    6.1471 H       1  UNL1        0.2108
     21 C           8.0073   33.3976   10.7872 C.3     1  UNL1        0.2526
     22 O           7.6357   32.7682    9.5690 O.3     1  UNL1       -0.4684
@<TRIPOS>BOND
     1    21    22    1
     2    22     1    1
     3     1     2   ar
     4     1     6   ar
     5     2     3   ar
     6     3     4   ar
     7     4     5   ar
     8     4    19    1
     9     5     6   ar
    10     5    14    1
    11     6     7    1
    12     7     8    1
    13     8     9    1
    14     8    14    1
    15     9    10    1
    16    10    11    1
    17    10    12    1
    18    11    20    1
    19    12    13    2
    20    14    13    1
    21    14    15    1
    22    15    16    1
    23    16    17    1
    24    17    18    1
    25    17    19    1
#	Name:			CHEMBL65
#	Creating user name:	trannguyen
#	Creation time:		Tue Feb  8 18:26:14 2022


#	Modifying user name:	trannguyen
#	Modification time:	Tue Feb  8 18:26:14 2022

@<TRIPOS>MOLECULE
CHEMBL65
 27 31 0 0 0
SMALL
GASTEIGER

@<TRIPOS>ATOM
      1 C           8.9247   32.0911    7.9406 C.3     1  UNL1        0.1961
      2 O           9.0256   32.5011    9.3185 O.3     1  UNL1       -0.3728
      3 C           9.9234   32.9701    7.1519 C.2     1  UNL1        0.3455
      4 O          11.0540   33.1862    7.5918 O.2     1  UNL1       -0.2471
      5 O           9.5637   33.4130    5.9294 O.3     1  UNL1       -0.4415
      6 C           8.1946   33.7251    5.6076 C.3     1  UNL1        0.2396
      7 C           7.1824   33.0430    6.4543 C.ar    1  UNL1        0.0762
      8 C           7.4939   32.2841    7.5212 C.ar    1  UNL1        0.0175
      9 C           6.4379   31.6160    8.2737 C.ar    1  UNL1        0.0172
     10 C           5.1706   31.7518    7.8760 C.ar    1  UNL1        0.0799
     11 N           4.8390   32.5445    6.7944 N.ar    1  UNL1       -0.2900
     12 C           5.7534   33.2311    6.0393 C.ar    1  UNL1        0.2604
     13 O           5.4594   33.9411    5.0828 O.2     1  UNL1       -0.2672
     14 C           3.3898   32.5604    6.5685 C.3     1  UNL1        0.1373
     15 C           2.8889   31.6299    7.6291 C.ar    1  UNL1        0.0196
     16 C           1.6170   31.1819    7.9087 C.ar    1  UNL1        0.0006
     17 C           1.4642   30.2587    8.9567 C.ar    1  UNL1        0.0174
     18 C           0.2008   29.7431    9.2889 C.ar    1  UNL1        0.0015
     19 C           0.0663   28.8153   10.3202 C.ar    1  UNL1        0.0001
     20 C           1.1902   28.3999   11.0259 C.ar    1  UNL1        0.0015
     21 C           2.4489   28.9146   10.7013 C.ar    1  UNL1        0.0191
     22 C           2.6189   29.8380    9.6802 C.ar    1  UNL1        0.0813
     23 N           3.8588   30.2873    9.4110 N.ar    1  UNL1       -0.2442
     24 C           3.9453   31.1643    8.4031 C.ar    1  UNL1        0.0949
     25 H           9.9806   32.6096    9.5006 H       1  UNL1        0.2114
     26 C          10.4536   30.2357    8.9056 C.3     1  UNL1        0.0034
     27 C           9.4024   30.6217    7.8735 C.3     1  UNL1        0.0422
@<TRIPOS>BOND
     1    26    27    1
     2     1    27    1
     3     1     2    1
     4     1     3    1
     5     1     8    1
     6     2    25    1
     7     3     4    2
     8     3     5    1
     9     5     6    1
    10     6     7    1
    11     7     8   ar
    12     7    12   ar
    13     8     9   ar
    14     9    10   ar
    15    10    11   ar
    16    10    24    1
    17    11    12   ar
    18    11    14    1
    19    12    13    2
    20    14    15    1
    21    15    16   ar
    22    15    24   ar
    23    16    17   ar
    24    17    18   ar
    25    17    22   ar
    26    18    19   ar
    27    19    20   ar
    28    20    21   ar
    29    21    22   ar
    30    22    23   ar
    31    23    24   ar
#	Name:			CHEMBL660
#	Creating user name:	trannguyen
#	Creation time:		Tue Feb  8 18:26:14 2022


#	Modifying user name:	trannguyen
#	Modification time:	Tue Feb  8 18:26:14 2022

@<TRIPOS>MOLECULE
CHEMBL660
 13 15 0 0 0
SMALL
GASTEIGER

@<TRIPOS>ATOM
      1 N           4.3647   33.4938    7.5091 N.3     1  UNL1       -0.3232
      2 C           3.7200   33.0419    6.2776 C.3     1  UNL1        0.0389
      3 C           3.0049   34.2208    5.5800 C.3     1  UNL1        0.0142
      4 C           2.3286   33.7370    4.2844 C.3     1  UNL1        0.0013
      5 C           3.3962   33.1533    3.3434 C.3     1  UNL1        0.0001
      6 C           4.1084   31.9703    4.0213 C.3     1  UNL1        0.0013
      7 C           3.0732   30.8857    4.3650 C.3     1  UNL1        0.0001
      8 C           2.0038   31.4572    5.3117 C.3     1  UNL1        0.0013
      9 C           1.3030   32.6429    4.6268 C.3     1  UNL1        0.0001
     10 C           2.6813   31.9469    6.6046 C.3     1  UNL1        0.0142
     11 C           4.7800   32.4586    5.3179 C.3     1  UNL1        0.0142
     12 H           3.6705   33.9048    8.1324 H       1  UNL1        0.1188
     13 H           5.0305   34.2365    7.2987 H       1  UNL1        0.1188
@<TRIPOS>BOND
     1     1     2    1
     2     1    12    1
     3     1    13    1
     4     2     3    1
     5     2    10    1
     6     2    11    1
     7     3     4    1
     8     4     5    1
     9     4     9    1
    10     5     6    1
    11     6     7    1
    12     6    11    1
    13     7     8    1
    14     8     9    1
    15     8    10    1
#	Name:			CHEMBL661
#	Creating user name:	trannguyen
#	Creation time:		Tue Feb  8 18:26:14 2022


#	Modifying user name:	trannguyen
#	Modification time:	Tue Feb  8 18:26:14 2022

@<TRIPOS>MOLECULE
CHEMBL661
 22 25 0 0 0
SMALL
GASTEIGER

@<TRIPOS>ATOM
      1 C           8.0889   31.9655    7.9364 C.3     1  UNL1        0.0742
      2 C           7.1938   32.8663    8.7003 C.ar    1  UNL1        0.1473
      3 N           7.5719   33.5702    9.7482 N.ar    1  UNL1       -0.1333
      4 N           6.4656   34.1596   10.2923 N.ar    1  UNL1       -0.1312
      5 C           5.4235   33.8078    9.5707 C.ar    1  UNL1        0.1717
      6 N           5.8285   33.0192    8.5152 N.ar    1  UNL1       -0.2791
      7 C           4.9950   32.5775    7.4553 C.ar    1  UNL1        0.0677
      8 C           5.5196   32.5081    6.1535 C.ar    1  UNL1        0.0185
      9 C           4.6967   32.1733    5.0749 C.ar    1  UNL1        0.0129
     10 C           3.3459   31.9200    5.2852 C.ar    1  UNL1        0.0578
     11 CL          2.3329   31.5267    3.9531 Cl      1  UNL1       -0.0822
     12 C           2.8101   31.9810    6.5684 C.ar    1  UNL1        0.0143
     13 C           3.6317   32.2894    7.6674 C.ar    1  UNL1        0.0343
     14 C           3.0054   32.2134    9.0281 C.2     1  UNL1        0.0779
     15 N           3.1556   33.0944    9.9580 N.2     1  UNL1       -0.2621
     16 C           4.0212   34.2465    9.7474 C.3     1  UNL1        0.1911
     17 C           2.1408   31.0305    9.3516 C.ar    1  UNL1        0.0173
     18 C           2.7363   29.8788    9.8803 C.ar    1  UNL1        0.0015
     19 C           1.9555   28.7628   10.1853 C.ar    1  UNL1        0.0000
     20 C           0.5808   28.7892    9.9540 C.ar    1  UNL1        0.0000
     21 C          -0.0149   29.9265    9.4091 C.ar    1  UNL1        0.0000
     22 C           0.7623   31.0452    9.1011 C.ar    1  UNL1        0.0015
@<TRIPOS>BOND
     1     1     2    1
     2     2     3   ar
     3     2     6   ar
     4     3     4   ar
     5     4     5   ar
     6     5     6   ar
     7     5    16    1
     8     6     7    1
     9     7     8   ar
    10     7    13   ar
    11     8     9   ar
    12     9    10   ar
    13    10    11    1
    14    10    12   ar
    15    12    13   ar
    16    13    14    1
    17    14    17    1
    18    14    15    2
    19    17    18   ar
    20    17    22   ar
    21    18    19   ar
    22    19    20   ar
    23    20    21   ar
    24    21    22   ar
    25    15    16    1
#	Name:			CHEMBL666
#	Creating user name:	trannguyen
#	Creation time:		Tue Feb  8 18:26:14 2022


#	Modifying user name:	trannguyen
#	Modification time:	Tue Feb  8 18:26:14 2022

@<TRIPOS>MOLECULE
CHEMBL666
 10 9 0 0 0
SMALL
GASTEIGER

@<TRIPOS>ATOM
      1 P           1.7288   28.3390   10.7830 P.3     1  UNL1        0.4341
      2 O           1.8620   27.6007   12.1236 O.2     1  UNL1       -0.2467
      3 O           1.6069   29.9216   11.2786 O.3     1  UNL1       -0.3165
      4 O           0.0163   28.2387   11.0076 O.3     1  UNL1       -0.3165
      5 H           1.2487   29.9256   12.1904 H       1  UNL1        0.2202
      6 H          -0.0843   27.8176   11.8879 H       1  UNL1        0.2202
      7 O           4.0880   29.4786   10.8449 O.2     1  UNL1       -0.2367
      8 C           3.5026   28.4430   10.5505 C.2     1  UNL1        0.4181
      9 O           4.1780   27.3273   10.1228 O.3     1  UNL1       -0.4720
     10 H           3.5044   26.6106   10.0385 H       1  UNL1        0.2957
@<TRIPOS>BOND
     1     7     8    2
     2     8     9    1
     3     8     1    1
     4     9    10    1
     5     1     2    2
     6     1     3    1
     7     1     4    1
     8     3     5    1
     9     4     6    1
#	Name:			CHEMBL672
#	Creating user name:	trannguyen
#	Creation time:		Tue Feb  8 18:26:14 2022


#	Modifying user name:	trannguyen
#	Modification time:	Tue Feb  8 18:26:14 2022

@<TRIPOS>MOLECULE
CHEMBL672
 25 26 0 0 0
SMALL
GASTEIGER

@<TRIPOS>ATOM
      1 C           2.3162   31.9112    6.3663 C.ar    1  UNL1        0.1390
      2 C           2.2476   31.1028    5.2237 C.ar    1  UNL1        0.0370
      3 C           3.3403   30.9963    4.3506 C.ar    1  UNL1        0.0063
      4 C           4.4977   31.7466    4.5731 C.ar    1  UNL1        0.0391
      5 C           4.5399   32.6091    5.6719 C.ar    1  UNL1        0.0063
      6 C           3.4521   32.6923    6.5525 C.ar    1  UNL1        0.0370
      7 C           5.6963   31.6107    3.6982 C.2     1  UNL1        0.1955
      8 O           5.8232   30.5963    3.0138 O.2     1  UNL1       -0.2866
      9 C           6.7471   32.6682    3.6183 C.ar    1  UNL1        0.0390
     10 C           7.9342   32.5928    4.3598 C.ar    1  UNL1        0.0040
     11 C           8.9110   33.5853    4.2337 C.ar    1  UNL1        0.0115
     12 C           8.7125   34.6486    3.3558 C.ar    1  UNL1        0.0577
     13 CL          9.9232   35.8599    3.1977 Cl      1  UNL1       -0.0822
     14 C           7.5453   34.7274    2.5990 C.ar    1  UNL1        0.0115
     15 C           6.5649   33.7368    2.7273 C.ar    1  UNL1        0.0040
     16 O           1.2384   31.8659    7.2043 O.3     1  UNL1       -0.4720
     17 C           1.3520   31.5137    8.6012 C.3     1  UNL1        0.2212
     18 C           2.7169   30.7900    8.6767 C.3     1  UNL1        0.0553
     19 C           0.2826   30.4711    8.9728 C.3     1  UNL1        0.0553
     20 C           1.3718   32.6385    9.6851 C.2     1  UNL1        0.3534
     21 O           0.3860   33.2823   10.0603 O.2     1  UNL1       -0.2462
     22 O           2.6216   32.8137   10.2200 O.3     1  UNL1       -0.4499
     23 C           3.0800   34.9958   11.1703 C.3     1  UNL1        0.0473
     24 C           3.2548   34.0849    9.9577 C.3     1  UNL1        0.1692
     25 C           4.7368   33.8564    9.6745 C.3     1  UNL1        0.0473
@<TRIPOS>BOND
     1    23    24    1
     2    24    25    1
     3    24    22    1
     4    22    20    1
     5    20    21    2
     6    20    17    1
     7    17    18    1
     8    17    19    1
     9    17    16    1
    10    16     1    1
    11     1     2   ar
    12     1     6   ar
    13     2     3   ar
    14     3     4   ar
    15     4     7    1
    16     4     5   ar
    17     7     8    2
    18     7     9    1
    19     9    10   ar
    20     9    15   ar
    21    10    11   ar
    22    11    12   ar
    23    12    13    1
    24    12    14   ar
    25    14    15   ar
    26     5     6   ar
#	Name:			CHEMBL679
#	Creating user name:	trannguyen
#	Creation time:		Tue Feb  8 18:26:14 2022


#	Modifying user name:	trannguyen
#	Modification time:	Tue Feb  8 18:26:14 2022

@<TRIPOS>MOLECULE
CHEMBL679
 17 17 0 0 0
SMALL
GASTEIGER

@<TRIPOS>ATOM
      1 C           1.9497   30.5802    9.4769 C.ar    1  UNL1        0.0088
      2 C           3.2079   29.9912    9.7054 C.ar    1  UNL1        0.0014
      3 C           3.3113   28.7114   10.2587 C.ar    1  UNL1        0.0395
      4 C           2.1538   28.0185   10.5858 C.ar    1  UNL1        0.1675
      5 O           2.1891   26.7644   11.1281 O.3     1  UNL1       -0.5029
      6 C           0.9045   28.5940   10.3659 C.ar    1  UNL1        0.1672
      7 O          -0.2287   27.9087   10.6974 O.3     1  UNL1       -0.5029
      8 C           0.7921   29.8614    9.8134 C.ar    1  UNL1        0.0379
      9 H           3.1206   26.4907   11.1948 H       1  UNL1        0.2923
     10 H           0.0951   27.0603   11.0600 H       1  UNL1        0.2923
     11 C           1.8588   31.9789    8.8960 C.3     1  UNL1        0.1485
     12 O           0.8152   32.0120    7.9175 O.3     1  UNL1       -0.3786
     13 H           0.8233   31.1506    7.4653 H       1  UNL1        0.2108
     14 C           1.6023   33.0777    9.9576 C.3     1  UNL1        0.1028
     15 C           0.0079   34.7605   10.6254 C.3     1  UNL1        0.0859
     16 N           0.1752   33.4074   10.1130 N.3     1  UNL1       -0.2940
     17 H          -0.2729   33.3462    9.1962 H       1  UNL1        0.1234
@<TRIPOS>BOND
     1    15    16    1
     2    16    14    1
     3    16    17    1
     4    11    12    1
     5    11     1    1
     6    11    14    1
     7    12    13    1
     8     1     2   ar
     9     1     8   ar
    10     2     3   ar
    11     3     4   ar
    12     4     5    1
    13     4     6   ar
    14     5     9    1
    15     6     7    1
    16     6     8   ar
    17     7    10    1
#	Name:			CHEMBL683
#	Creating user name:	trannguyen
#	Creation time:		Tue Feb  8 18:26:14 2022


#	Modifying user name:	trannguyen
#	Modification time:	Tue Feb  8 18:26:14 2022

@<TRIPOS>MOLECULE
CHEMBL683
 15 15 0 0 0
SMALL
GASTEIGER

@<TRIPOS>ATOM
      1 O           2.8798   29.3374    9.4355 O.3     1  UNL1       -0.4720
      2 C           4.0979   29.8989    9.6778 C.ar    1  UNL1        0.1390
      3 C           5.0892   29.4417   10.5430 C.ar    1  UNL1        0.0378
      4 C           6.2794   30.1687   10.7022 C.ar    1  UNL1        0.0145
      5 C           6.4938   31.3346    9.9709 C.ar    1  UNL1        0.0579
      6 CL          7.9551   32.2198   10.1697 Cl      1  UNL1       -0.0822
      7 C           5.5284   31.7811    9.0766 C.ar    1  UNL1        0.0145
      8 C           4.3358   31.0650    8.9374 C.ar    1  UNL1        0.0378
      9 C           1.7228   30.9991   10.8830 C.3     1  UNL1        0.0553
     10 C           1.7096   29.6108   10.2154 C.3     1  UNL1        0.2210
     11 C           0.5719   29.6663    9.1722 C.3     1  UNL1        0.0553
     12 C           1.3610   28.4695   11.1895 C.2     1  UNL1        0.3503
     13 O           2.1100   28.0636   12.0769 O.2     1  UNL1       -0.2464
     14 O           0.1301   27.9323   11.0118 O.3     1  UNL1       -0.4778
     15 H          -0.3581   28.3045   10.2495 H       1  UNL1        0.2952
@<TRIPOS>BOND
     1     9    10    1
     2    10    11    1
     3    10     1    1
     4    10    12    1
     5     1     2    1
     6     2     3   ar
     7     2     8   ar
     8     3     4   ar
     9     4     5   ar
    10     5     6    1
    11     5     7   ar
    12     7     8   ar
    13    12    13    2
    14    12    14    1
    15    14    15    1
#	Name:			CHEMBL685
#	Creating user name:	trannguyen
#	Creation time:		Tue Feb  8 18:26:14 2022


#	Modifying user name:	trannguyen
#	Modification time:	Tue Feb  8 18:26:14 2022

@<TRIPOS>MOLECULE
CHEMBL685
 24 26 0 0 0
SMALL
GASTEIGER

@<TRIPOS>ATOM
      1 C           6.0492   32.3185    3.5067 C.ar    1  UNL1        0.2029
      2 N           4.8770   31.8424    3.1766 N.ar    1  UNL1       -0.2136
      3 C           4.1657   31.7414    4.3412 C.ar    1  UNL1        0.0997
      4 C           2.8565   31.2935    4.5546 C.ar    1  UNL1        0.0208
      5 C           2.3521   31.2739    5.8631 C.ar    1  UNL1        0.0048
      6 C           3.1245   31.7290    6.9414 C.ar    1  UNL1        0.0405
      7 C           4.4540   32.1533    6.7402 C.ar    1  UNL1        0.0217
      8 C           4.9301   32.1535    5.4247 C.ar    1  UNL1        0.0766
      9 N           6.1381   32.4960    4.8672 N.ar    1  UNL1       -0.3252
     10 H           6.9641   32.7674    5.3729 H       1  UNL1        0.1686
     11 C           7.6355   31.6985    1.8156 C.2     1  UNL1        0.4076
     12 O           7.2954   30.5495    1.6117 O.2     1  UNL1       -0.2260
     13 N           7.1131   32.6173    2.6968 N.am    1  UNL1       -0.2212
     14 H           7.5954   33.4893    2.7537 H       1  UNL1        0.1610
     15 C           8.5693   32.3784   -0.2198 C.3     1  UNL1        0.2574
     16 O           8.7094   32.2917    1.2021 O.3     1  UNL1       -0.4303
     17 C           2.5980   31.7391    8.3369 C.2     1  UNL1        0.1956
     18 O           2.2862   32.8186    8.8388 O.2     1  UNL1       -0.2866
     19 C           2.4294   30.5015    9.1500 C.ar    1  UNL1        0.0390
     20 C           1.1729   29.9811    9.4864 C.ar    1  UNL1        0.0032
     21 C           1.0780   28.8219   10.2630 C.ar    1  UNL1        0.0001
     22 C           2.2324   28.1932   10.7288 C.ar    1  UNL1        0.0000
     23 C           3.4849   28.7223   10.4232 C.ar    1  UNL1        0.0001
     24 C           3.5834   29.8742    9.6399 C.ar    1  UNL1        0.0032
@<TRIPOS>BOND
     1    15    16    1
     2    16    11    1
     3    11    12    2
     4    11    13   am
     5    13     1    1
     6    13    14    1
     7     1     2   ar
     8     1     9   ar
     9     2     3   ar
    10     3     4   ar
    11     3     8   ar
    12     4     5   ar
    13     5     6   ar
    14     6    17    1
    15     6     7   ar
    16    17    18    2
    17    17    19    1
    18    19    20   ar
    19    19    24   ar
    20    20    21   ar
    21    21    22   ar
    22    22    23   ar
    23    23    24   ar
    24     7     8   ar
    25     8     9   ar
    26     9    10    1
#	Name:			CHEMBL686
#	Creating user name:	trannguyen
#	Creation time:		Tue Feb  8 18:26:14 2022


#	Modifying user name:	trannguyen
#	Modification time:	Tue Feb  8 18:26:14 2022

@<TRIPOS>MOLECULE
CHEMBL686
 20 21 0 0 0
SMALL
GASTEIGER

@<TRIPOS>ATOM
      1 N           3.0839   31.7741    8.2263 N.pl3   1  UNL1       -0.3126
      2 H           3.7146   32.4571    8.6465 H       1  UNL1        0.1522
      3 C           5.5061   32.7623    3.9041 C.3     1  UNL1        0.0307
      4 C           4.3023   32.3187    4.6968 C.ar    1  UNL1       -0.0246
      5 C           3.1247   32.0309    3.9917 C.ar    1  UNL1       -0.0045
      6 C           1.9634   31.6852    4.6672 C.ar    1  UNL1        0.0009
      7 C           1.9704   31.6041    6.0564 C.ar    1  UNL1        0.0143
      8 C           3.1443   31.8148    6.8027 C.ar    1  UNL1        0.0440
      9 C           4.3243   32.2078    6.1145 C.ar    1  UNL1       -0.0124
     10 C           5.5818   32.5882    6.8625 C.3     1  UNL1        0.0320
     11 C           3.0477   30.6256    9.0729 C.ar    1  UNL1        0.0546
     12 C           4.2265   29.9828    9.4868 C.ar    1  UNL1        0.0148
     13 C           4.1857   28.8689   10.3317 C.ar    1  UNL1        0.0013
     14 C           2.9681   28.4013   10.8149 C.ar    1  UNL1        0.0003
     15 C           1.7897   29.0554   10.4624 C.ar    1  UNL1        0.0077
     16 C           1.8212   30.1602    9.5949 C.ar    1  UNL1        0.0888
     17 C           0.5095   30.7780    9.2614 C.2     1  UNL1        0.3392
     18 O          -0.3475   30.1994    8.6167 O.2     1  UNL1       -0.2450
     19 O           0.3760   32.0536    9.6848 O.3     1  UNL1       -0.4771
     20 H           1.1469   32.3663   10.2091 H       1  UNL1        0.2954
@<TRIPOS>BOND
     1     3     4    1
     2     4     5   ar
     3     4     9   ar
     4     5     6   ar
     5     6     7   ar
     6     7     8   ar
     7     8     1    1
     8     8     9   ar
     9     1    11    1
    10     1     2    1
    11    11    12   ar
    12    11    16   ar
    13    12    13   ar
    14    13    14   ar
    15    14    15   ar
    16    15    16   ar
    17    16    17    1
    18    17    18    2
    19    17    19    1
    20    19    20    1
    21     9    10    1
#	Name:			CHEMBL689
#	Creating user name:	trannguyen
#	Creation time:		Tue Feb  8 18:26:14 2022


#	Modifying user name:	trannguyen
#	Modification time:	Tue Feb  8 18:26:14 2022

@<TRIPOS>MOLECULE
CHEMBL689
 18 17 0 0 0
SMALL
GASTEIGER

@<TRIPOS>ATOM
      1 C           2.0779   31.1586    9.7362 C.3     1  UNL1        0.1689
      2 O           1.7837   31.8029   10.9804 O.3     1  UNL1       -0.3794
      3 H           0.9080   31.4635   11.2736 H       1  UNL1        0.2105
      4 C           1.5141   31.9902    8.5691 C.3     1  UNL1        0.1689
      5 O           0.0821   32.0869    8.6717 O.3     1  UNL1       -0.3794
      6 H          -0.2000   32.3898    7.7804 H       1  UNL1        0.2105
      7 O           1.1583   32.1110    6.2005 O.3     1  UNL1       -0.3794
      8 C           1.8695   31.3816    7.2071 C.3     1  UNL1        0.1689
      9 H           1.4445   31.7453    5.3415 H       1  UNL1        0.2105
     10 C           1.6008   29.6784    9.7259 C.3     1  UNL1        0.1689
     11 O           0.1948   29.5714    9.9501 O.3     1  UNL1       -0.3794
     12 H          -0.0342   30.2477   10.6279 H       1  UNL1        0.2105
     13 C           2.3758   28.7877   10.7204 C.3     1  UNL1        0.1689
     14 O           3.6668   29.3838   10.9514 O.3     1  UNL1       -0.3794
     15 H           4.3107   28.6502   10.9235 H       1  UNL1        0.2105
     16 C           2.5542   27.3545   10.1775 C.3     1  UNL1        0.1689
     17 O           2.1706   26.4195   11.1879 O.3     1  UNL1       -0.3794
     18 H           2.1667   25.5572   10.7835 H       1  UNL1        0.2105
@<TRIPOS>BOND
     1     7     8    1
     2     7     9    1
     3     8     4    1
     4     4     5    1
     5     4     1    1
     6     5     6    1
     7     1     2    1
     8     2     3    1
     9    10    11    1
    10    10     1    1
    11    11    12    1
    12    13    14    1
    13    13    16    1
    14    13    10    1
    15    14    15    1
    16    16    17    1
    17    17    18    1
#	Name:			CHEMBL690
#	Creating user name:	trannguyen
#	Creation time:		Tue Feb  8 18:26:14 2022


#	Modifying user name:	trannguyen
#	Modification time:	Tue Feb  8 18:26:14 2022

@<TRIPOS>MOLECULE
CHEMBL690
 33 34 0 0 0
SMALL
GASTEIGER

@<TRIPOS>ATOM
      1 C           6.0516   32.8489    6.1927 C.3     1  UNL1        0.1755
      2 C           7.3249   32.9069    5.3108 C.3     1  UNL1        0.0777
      3 C           7.0486   33.1842    3.8348 C.3     1  UNL1        0.1358
      4 O           6.6332   34.5389    3.6304 O.3     1  UNL1       -0.3799
      5 C           6.0087   32.2360    3.3316 C.2     1  UNL1       -0.0015
      6 C           4.9411   31.9234    4.0898 C.2     1  UNL1       -0.0213
      7 C           3.9837   30.9377    3.6589 C.2     1  UNL1       -0.0090
      8 C           2.8027   30.7782    4.2636 C.2     1  UNL1       -0.0268
      9 C           2.3194   31.6434    5.3967 C.3     1  UNL1        0.0224
     10 C           1.3608   32.6580    4.7785 C.3     1  UNL1        0.0047
     11 C           3.4952   32.2201    6.2538 C.3     1  UNL1        0.0116
     12 C           4.7131   32.6847    5.3928 C.3     1  UNL1        0.0626
     13 H           5.6528   34.5214    3.5811 H       1  UNL1        0.2108
     14 O           6.2152   31.7953    7.1699 O.3     1  UNL1       -0.4518
     15 C           6.5215   32.2146    8.4444 C.2     1  UNL1        0.3163
     16 O           6.3156   33.3047    8.8780 O.2     1  UNL1       -0.2501
     17 C           7.2792   31.1148    9.1938 C.3     1  UNL1        0.0991
     18 C           8.7312   31.5726    9.3331 C.3     1  UNL1        0.0116
     19 C           5.7029   29.6882   10.6364 C.3     1  UNL1        0.0006
     20 C           6.6859   30.8494   10.5885 C.3     1  UNL1        0.0111
     21 C           3.0658   33.3001    7.3125 C.3     1  UNL1        0.0033
     22 C           2.7842   32.8179    8.7417 C.3     1  UNL1        0.0293
     23 C           1.4618   32.0733    8.9858 C.3     1  UNL1        0.1130
     24 O           0.3436   32.3745    8.1748 O.3     1  UNL1       -0.3844
     25 H           0.4636   31.9482    7.2964 H       1  UNL1        0.2103
     26 C           1.7003   30.5592    9.0852 C.3     1  UNL1        0.0588
     27 C           2.1360   29.9450   10.4392 C.3     1  UNL1        0.1185
     28 O           1.7888   30.9437   11.4274 O.3     1  UNL1       -0.3840
     29 H           1.4850   30.5012   12.2367 H       1  UNL1        0.2104
     30 C           1.5455   28.5964   10.8564 C.3     1  UNL1        0.0710
     31 C           2.4178   27.3180   10.9209 C.2     1  UNL1        0.0528
     32 O           2.1310   26.5504   11.8680 O.co2   1  UNL1       -0.5491
     33 O           3.1846   27.1180    9.9220 O.co2   1  UNL1       -0.5491
@<TRIPOS>UNITY_ATOM_ATTR
32 1
charge -1
@<TRIPOS>BOND
     1    19    20    1
     2    17    18    1
     3    17    15    1
     4    17    20    1
     5    15    16    2
     6    15    14    1
     7     1     2    1
     8     1    12    1
     9     1    14    1
    10     2     3    1
    11     3     5    1
    12     3     4    1
    13     4    13    1
    14     5     6    2
    15     6     7    1
    16     6    12    1
    17     7     8    2
    18     8     9    1
    19     9    10    1
    20     9    11    1
    21    11    21    1
    22    11    12    1
    23    21    22    1
    24    22    23    1
    25    23    24    1
    26    23    26    1
    27    24    25    1
    28    26    27    1
    29    27    28    1
    30    27    30    1
    31    28    29    1
    32    30    31    1
    33    31    32   ar
    34    31    33   ar
#	Name:			CHEMBL691
#	Creating user name:	trannguyen
#	Creation time:		Tue Feb  8 18:26:14 2022


#	Modifying user name:	trannguyen
#	Modification time:	Tue Feb  8 18:26:14 2022

@<TRIPOS>MOLECULE
CHEMBL691
 24 27 0 0 0
SMALL
GASTEIGER

@<TRIPOS>ATOM
      1 C           7.4814   33.4375    9.8989 C.3     1  UNL1        0.1420
      2 O           8.7346   33.8997    9.3874 O.3     1  UNL1       -0.3753
      3 C           6.6494   34.6821   10.2728 C.3     1  UNL1        0.0395
      4 C           5.2918   34.5688    9.6382 C.3     1  UNL1        0.0036
      5 C           5.2607   33.3328    8.7322 C.3     1  UNL1        0.0035
      6 C           4.0242   32.4670    9.0120 C.3     1  UNL1        0.0045
      7 C           3.1251   32.3347    7.7629 C.3     1  UNL1        0.0050
      8 C           1.7807   31.7348    8.1660 C.3     1  UNL1        0.0261
      9 C           1.9111   30.5507    9.0926 C.ar    1  UNL1       -0.0231
     10 C           0.7655   29.7940    9.3795 C.ar    1  UNL1        0.0320
     11 C           0.8373   28.7385   10.2838 C.ar    1  UNL1        0.1333
     12 O          -0.2630   27.9963   10.5954 O.3     1  UNL1       -0.5055
     13 C           2.0312   28.4144   10.9106 C.ar    1  UNL1        0.0363
     14 C           3.1716   29.1637   10.6418 C.ar    1  UNL1       -0.0015
     15 C           3.1220   30.2433    9.7460 C.ar    1  UNL1       -0.0263
     16 C           4.3679   31.0861    9.5701 C.3     1  UNL1        0.0220
     17 C           5.4290   30.3979    8.7153 C.3     1  UNL1        0.0045
     18 C           6.7610   31.1292    8.8475 C.3     1  UNL1        0.0035
     19 C           6.6866   32.6826    8.7592 C.3     1  UNL1        0.0333
     20 C           7.2514   33.0156    7.3347 C.3     1  UNL1        0.0033
     21 H           9.4418   33.4963    9.9104 H       1  UNL1        0.2114
     22 H          -1.0141   28.3353   10.0825 H       1  UNL1        0.2922
     23 C           7.5114   32.2373   12.2389 C.1     1  UNL1       -0.0119
     24 C           7.7535   32.8054   11.2231 C.1     1  UNL1       -0.0526
@<TRIPOS>BOND
     1    23    24    3
     2     1     3    1
     3     1    19    1
     4     1     2    1
     5     1    24    1
     6     2    21    1
     7     3     4    1
     8     4     5    1
     9     5     6    1
    10     5    19    1
    11     6     7    1
    12     6    16    1
    13     7     8    1
    14     8     9    1
    15     9    10   ar
    16     9    15   ar
    17    10    11   ar
    18    11    13   ar
    19    11    12    1
    20    12    22    1
    21    13    14   ar
    22    14    15   ar
    23    15    16    1
    24    16    17    1
    25    17    18    1
    26    18    19    1
    27    19    20    1
#	Name:			CHEMBL695
#	Creating user name:	trannguyen
#	Creation time:		Tue Feb  8 18:26:14 2022


#	Modifying user name:	trannguyen
#	Modification time:	Tue Feb  8 18:26:14 2022

@<TRIPOS>MOLECULE
CHEMBL695
 10 10 0 0 0
SMALL
GASTEIGER

@<TRIPOS>ATOM
      1 C           1.7416   28.0970   11.2126 C.3     1  UNL1        0.1264
      2 N           1.3338   29.2062   10.3863 N.am    1  UNL1       -0.1912
      3 C           0.1105   29.3541    9.8375 C.2     1  UNL1        0.4111
      4 O          -0.8544   28.6254    9.9899 O.2     1  UNL1       -0.2258
      5 O           0.0757   30.4786    9.0613 O.3     1  UNL1       -0.4326
      6 C           1.3432   31.1474    9.1453 C.3     1  UNL1        0.2058
      7 C           1.1206   32.5486    9.6902 C.3     1  UNL1        0.0533
      8 C           2.0131   31.1484    7.7786 C.3     1  UNL1        0.0533
      9 C           2.1183   30.2745   10.1025 C.2     1  UNL1        0.2703
     10 O           3.2486   30.4862   10.5167 O.2     1  UNL1       -0.2706
@<TRIPOS>BOND
     1     1     2    1
     2     2     3   am
     3     2     9   am
     4     3     4    2
     5     3     5    1
     6     5     6    1
     7     6     7    1
     8     6     8    1
     9     6     9    1
    10     9    10    2
#	Name:			CHEMBL6966
#	Creating user name:	trannguyen
#	Creation time:		Tue Feb  8 18:26:14 2022


#	Modifying user name:	trannguyen
#	Modification time:	Tue Feb  8 18:26:14 2022

@<TRIPOS>MOLECULE
CHEMBL6966
 33 34 0 0 0
SMALL
GASTEIGER

@<TRIPOS>ATOM
      1 C           5.9830   34.1588    9.4452 C.3     1  UNL1        0.0197
      2 C           7.1385   34.9977    8.8277 C.3     1  UNL1        0.0187
      3 C           7.7887   36.0663    9.6959 C.3     1  UNL1        0.0722
      4 N           8.5749   35.7593   10.8827 N.3     1  UNL1       -0.2712
      5 C           8.6188   36.9637   11.6981 C.3     1  UNL1        0.0896
      6 C           9.9543   35.2773   10.5345 C.3     1  UNL1        0.0768
      7 C          10.3021   33.7897   10.1916 C.3     1  UNL1        0.0438
      8 C          11.0870   32.1378    6.2763 C.ar    1  UNL1        0.1724
      9 C          10.7183   31.3045    7.3494 C.ar    1  UNL1        0.0397
     10 C          10.3922   31.8198    8.6137 C.ar    1  UNL1       -0.0009
     11 C          10.2772   33.1833    8.7963 C.ar    1  UNL1       -0.0176
     12 C          10.3255   33.9010    7.6119 C.ar    1  UNL1        0.0358
     13 C          10.8853   33.4853    6.4102 C.ar    1  UNL1        0.1721
     14 C          12.9622   31.4733    5.0863 C.3     1  UNL1        0.2526
     15 O          11.5581   31.6614    5.0911 O.3     1  UNL1       -0.4684
     16 O          11.1194   34.5250    5.5567 O.3     1  UNL1       -0.4684
     17 C          10.1267   34.8987    4.6185 C.3     1  UNL1        0.2526
     18 C           5.7372   32.6597    9.0164 C.3     1  UNL1        0.0981
     19 C           5.8834   32.4839    7.4821 C.ar    1  UNL1       -0.0065
     20 C           7.0939   32.0965    6.9099 C.ar    1  UNL1        0.0000
     21 C           7.2502   32.0359    5.5268 C.ar    1  UNL1        0.0398
     22 C           6.2054   32.3076    4.6426 C.ar    1  UNL1        0.1724
     23 C           4.9389   32.5466    5.1843 C.ar    1  UNL1        0.1721
     24 C           4.8160   32.6968    6.5824 C.ar    1  UNL1        0.0367
     25 O           6.4157   32.3834    3.2905 O.3     1  UNL1       -0.4684
     26 C           6.8855   33.6362    2.7852 C.3     1  UNL1        0.2526
     27 O           3.7546   32.7071    4.5104 O.3     1  UNL1       -0.4684
     28 C           3.3839   34.0383    4.1618 C.3     1  UNL1        0.2526
     29 C           6.6730   31.6432    9.8043 C.3     1  UNL1        0.0169
     30 C           7.1659   32.1433   11.1751 C.3     1  UNL1        0.0014
     31 C           5.9911   30.2775   10.0580 C.3     1  UNL1        0.0014
     32 C           4.3406   32.3197    9.4160 C.1     1  UNL1        0.0752
     33 N           3.2334   31.9982    9.7376 N.1     1  UNL1       -0.1956
@<TRIPOS>BOND
     1    14    15    1
     2    15     8    1
     3     8     9   ar
     4     8    13   ar
     5     9    10   ar
     6    10    11   ar
     7    11     7    1
     8    11    12   ar
     9     7     6    1
    10     6     4    1
    11     4     5    1
    12     4     3    1
    13     3     2    1
    14     2     1    1
    15     1    18    1
    16    18    32    1
    17    18    19    1
    18    18    29    1
    19    32    33    3
    20    19    20   ar
    21    19    24   ar
    22    20    21   ar
    23    21    22   ar
    24    22    25    1
    25    22    23   ar
    26    25    26    1
    27    23    27    1
    28    23    24   ar
    29    27    28    1
    30    29    30    1
    31    29    31    1
    32    12    13   ar
    33    13    16    1
    34    16    17    1
#	Name:			CHEMBL696
#	Creating user name:	trannguyen
#	Creation time:		Tue Feb  8 18:26:14 2022


#	Modifying user name:	trannguyen
#	Modification time:	Tue Feb  8 18:26:14 2022

@<TRIPOS>MOLECULE
CHEMBL696
 11 11 0 0 0
SMALL
GASTEIGER

@<TRIPOS>ATOM
      1 C           1.9990   29.9448    9.7210 C.3     1  UNL1        0.0778
      2 C           1.7899   31.2100   10.5693 C.3     1  UNL1        0.0096
      3 C           1.2373   28.7623   10.3463 C.3     1  UNL1        0.0940
      4 C           2.3113   27.9296   10.9868 C.2     1  UNL1        0.2286
      5 O           2.1259   26.9171   11.6410 O.2     1  UNL1       -0.2747
      6 N           3.5223   28.4548   10.6840 N.am    1  UNL1       -0.2553
      7 C           3.4524   29.5320    9.8634 C.2     1  UNL1        0.2276
      8 O           4.4135   30.0880    9.3581 O.2     1  UNL1       -0.2747
      9 H           4.3910   28.0138   10.9406 H       1  UNL1        0.1575
     10 C           1.6639   31.7064    7.8469 C.3     1  UNL1        0.0005
     11 C           1.6265   30.2371    8.2557 C.3     1  UNL1        0.0091
@<TRIPOS>BOND
     1    10    11    1
     2    11     1    1
     3     1     2    1
     4     1     3    1
     5     1     7    1
     6     3     4    1
     7     4     5    2
     8     4     6   am
     9     6     7   am
    10     6     9    1
    11     7     8    2
#	Name:			CHEMBL698
#	Creating user name:	trannguyen
#	Creation time:		Tue Feb  8 18:26:14 2022


#	Modifying user name:	trannguyen
#	Modification time:	Tue Feb  8 18:26:14 2022

@<TRIPOS>MOLECULE
CHEMBL698
 20 20 0 0 0
SMALL
GASTEIGER

@<TRIPOS>ATOM
      1 C           1.2505   31.1264    9.2303 C.ar    1  UNL1        0.0446
      2 C           1.6698   30.8073    7.9340 C.ar    1  UNL1        0.0145
      3 C           2.7912   31.4072    7.3723 C.ar    1  UNL1        0.0077
      4 C           3.5402   32.3234    8.1108 C.ar    1  UNL1        0.0757
      5 C           3.1442   32.6499    9.4123 C.ar    1  UNL1        0.0077
      6 C           2.0083   32.0436    9.9672 C.ar    1  UNL1        0.0145
      7 N           0.1642   30.4290    9.7501 N.pl3   1  UNL1       -0.3326
      8 H          -0.2484   30.8979   10.5512 H       1  UNL1        0.1468
      9 C           0.2137   28.9783    9.8690 C.3     1  UNL1        0.0870
     10 C           1.2925   28.5683   10.8794 C.3     1  UNL1        0.0212
     11 C           3.7607   28.5635   10.2047 C.3     1  UNL1        0.0001
     12 C           2.4648   27.7742   10.2908 C.3     1  UNL1        0.0017
     13 C           4.7857   32.9115    7.5551 C.2     1  UNL1        0.3412
     14 O           5.8499   32.9418    8.1314 O.2     1  UNL1       -0.2449
     15 O           4.5328   33.3463    6.2918 O.3     1  UNL1       -0.4439
     16 C           5.5932   33.1624    5.3496 C.3     1  UNL1        0.2260
     17 C           5.4281   31.8329    4.6020 C.3     1  UNL1        0.1202
     18 N           4.4436   31.8853    3.5046 N.3     1  UNL1       -0.2672
     19 C           3.3040   31.0202    3.8277 C.3     1  UNL1        0.0898
     20 C           3.9642   33.2558    3.2979 C.3     1  UNL1        0.0898
@<TRIPOS>BOND
     1    11    12    1
     2    12    10    1
     3    10     9    1
     4     9     7    1
     5     7     1    1
     6     7     8    1
     7     1     2   ar
     8     1     6   ar
     9     2     3   ar
    10     3     4   ar
    11     4    13    1
    12     4     5   ar
    13    13    14    2
    14    13    15    1
    15    15    16    1
    16    16    17    1
    17    17    18    1
    18    18    19    1
    19    18    20    1
    20     5     6   ar
#	Name:			CHEMBL6
#	Creating user name:	trannguyen
#	Creation time:		Tue Feb  8 18:26:14 2022


#	Modifying user name:	trannguyen
#	Modification time:	Tue Feb  8 18:26:14 2022

@<TRIPOS>MOLECULE
CHEMBL6
 26 28 0 0 0
SMALL
GASTEIGER

@<TRIPOS>ATOM
      1 C           2.2174   32.0610    6.6088 C.ar    1  UNL1        0.1388
      2 C           3.1521   33.0277    6.2569 C.ar    1  UNL1        0.0384
      3 C           4.3938   33.1009    6.9023 C.ar    1  UNL1        0.0207
      4 C           4.6885   32.1675    7.9188 C.ar    1  UNL1        0.0664
      5 C           3.7687   31.1816    8.2677 C.ar    1  UNL1        0.0169
      6 C           2.5290   31.1299    7.6006 C.ar    1  UNL1        0.0381
      7 C           4.3245   30.4018    9.3182 C.ar    1  UNL1        0.0025
      8 C           5.5466   30.9747    9.6405 C.ar    1  UNL1        0.0411
      9 C           6.3862   30.6824   10.8398 C.3     1  UNL1        0.0501
     10 N           5.8432   31.9581    8.6832 N.ar    1  UNL1       -0.2785
     11 C           7.0710   32.6454    8.4911 C.2     1  UNL1        0.2644
     12 O           7.0292   33.7588    7.9680 O.2     1  UNL1       -0.2666
     13 C           8.4180   32.1263    8.8362 C.ar    1  UNL1        0.0565
     14 C           9.2071   32.8675    9.7265 C.ar    1  UNL1        0.0056
     15 C          10.4965   32.4395   10.0461 C.ar    1  UNL1        0.0115
     16 C          10.9989   31.2733    9.4726 C.ar    1  UNL1        0.0577
     17 CL         12.5841   30.7412    9.8718 Cl      1  UNL1       -0.0822
     18 C          10.2295   30.5411    8.5677 C.ar    1  UNL1        0.0115
     19 C           8.9438   30.9771    8.2326 C.ar    1  UNL1        0.0056
     20 C           1.1373   32.5332    4.5692 C.3     1  UNL1        0.2525
     21 O           1.0353   32.0750    5.9162 O.3     1  UNL1       -0.4714
     22 C           3.6394   29.2477    9.9909 C.3     1  UNL1        0.1368
     23 C           2.2179   29.5829   10.3839 C.2     1  UNL1        0.3183
     24 O           1.2381   28.9342   10.0257 O.2     1  UNL1       -0.2499
     25 O           2.0929   30.7075   11.1263 O.3     1  UNL1       -0.4799
     26 H           2.9518   31.1239   11.3252 H       1  UNL1        0.2951
@<TRIPOS>BOND
     1    20    21    1
     2    21     1    1
     3     1     2   ar
     4     1     6   ar
     5     2     3   ar
     6     3     4   ar
     7     4     5   ar
     8     4    10   ar
     9     5     6   ar
    10     5     7   ar
    11     7    22    1
    12     7     8   ar
    13    22    23    1
    14    23    24    2
    15    23    25    1
    16    25    26    1
    17     8     9    1
    18     8    10   ar
    19    10    11   am
    20    11    12    2
    21    11    13    1
    22    13    14   ar
    23    13    19   ar
    24    14    15   ar
    25    15    16   ar
    26    16    17    1
    27    16    18   ar
    28    18    19   ar
#	Name:			CHEMBL7002
#	Creating user name:	trannguyen
#	Creation time:		Tue Feb  8 18:26:14 2022


#	Modifying user name:	trannguyen
#	Modification time:	Tue Feb  8 18:26:14 2022

@<TRIPOS>MOLECULE
CHEMBL7002
 24 26 0 0 0
SMALL
GASTEIGER

@<TRIPOS>ATOM
      1 C           3.4429   32.1769    6.4623 C.ar    1  UNL1        0.1385
      2 C           3.2527   31.6577    5.1794 C.ar    1  UNL1        0.0366
      3 C           4.3331   31.5167    4.2956 C.ar    1  UNL1       -0.0011
      4 C           5.6178   31.9351    4.6669 C.ar    1  UNL1       -0.0206
      5 C           5.7977   32.4667    5.9490 C.ar    1  UNL1       -0.0011
      6 C           4.7246   32.5761    6.8390 C.ar    1  UNL1        0.0366
      7 O           2.3269   32.2493    7.2573 O.3     1  UNL1       -0.4755
      8 C           1.7063   31.0000    7.5915 C.3     1  UNL1        0.2052
      9 C           1.8664   31.8317    9.9679 C.3     1  UNL1        0.0037
     10 C           2.0001   30.5905    9.0621 C.3     1  UNL1        0.0404
     11 C           3.4555   30.0536    9.1340 C.3     1  UNL1        0.0036
     12 C           3.7777   29.2824   10.4132 C.3     1  UNL1        0.0001
     13 C           2.7710   28.1651   10.6442 C.3     1  UNL1        0.0000
     14 C           1.3600   28.7280   10.7427 C.3     1  UNL1        0.0001
     15 C           0.9771   29.5080    9.4868 C.3     1  UNL1        0.0036
     16 C           6.7987   31.8199    3.7224 C.3     1  UNL1        0.0468
     17 C           6.7106   32.5857    2.3927 C.3     1  UNL1        0.1369
     18 S           7.2319   34.3311    2.5073 S.3     1  UNL1       -0.0482
     19 C           8.7327   34.0025    1.6796 C.2     1  UNL1        0.2792
     20 O           9.6918   34.7626    1.6785 O.2     1  UNL1       -0.2625
     21 N           8.6709   32.8062    1.0558 N.am    1  UNL1       -0.2460
     22 C           7.6295   31.9793    1.3539 C.2     1  UNL1        0.2392
     23 O           7.4952   30.8613    0.8742 O.2     1  UNL1       -0.2737
     24 H           9.4397   32.4845    0.4906 H       1  UNL1        0.1583
@<TRIPOS>BOND
     1     9    10    1
     2    10     8    1
     3    10    11    1
     4    10    15    1
     5     8     7    1
     6     7     1    1
     7     1     2   ar
     8     1     6   ar
     9     2     3   ar
    10     3     4   ar
    11     4    16    1
    12     4     5   ar
    13    16    17    1
    14    17    18    1
    15    17    22    1
    16    18    19    1
    17    19    20    2
    18    19    21   am
    19    21    22   am
    20    21    24    1
    21    22    23    2
    22     5     6   ar
    23    11    12    1
    24    12    13    1
    25    13    14    1
    26    14    15    1
#	Name:			CHEMBL701
#	Creating user name:	trannguyen
#	Creation time:		Tue Feb  8 18:26:14 2022


#	Modifying user name:	trannguyen
#	Modification time:	Tue Feb  8 18:26:14 2022

@<TRIPOS>MOLECULE
CHEMBL701
 17 17 0 0 0
SMALL
GASTEIGER

@<TRIPOS>ATOM
      1 C           2.2707   30.2298    9.7876 C.3     1  UNL1        0.0489
      2 C           3.6981   30.6583    9.3782 C.ar    1  UNL1       -0.0206
      3 C           3.9086   31.7010    8.4555 C.ar    1  UNL1       -0.0034
      4 C           5.2005   32.1074    8.0949 C.ar    1  UNL1        0.0111
      5 C           6.3079   31.4801    8.6541 C.ar    1  UNL1        0.0577
      6 CL          7.8937   31.9802    8.2078 Cl      1  UNL1       -0.0822
      7 C           6.1308   30.4482    9.5713 C.ar    1  UNL1        0.0111
      8 C           4.8350   30.0359    9.9279 C.ar    1  UNL1       -0.0034
      9 N          -0.0808   30.9296    9.1370 N.3     1  UNL1       -0.3209
     10 C           1.2810   30.6537    8.6645 C.3     1  UNL1        0.0701
     11 H          -0.7133   31.0109    8.3322 H       1  UNL1        0.1189
     12 H          -0.1057   31.8630    9.5686 H       1  UNL1        0.1189
     13 C           2.2125   28.7093   10.0689 C.3     1  UNL1        0.1151
     14 C           1.3225   28.2129   11.1989 C.2     1  UNL1        0.3142
     15 O           1.7508   27.7063   12.2150 O.2     1  UNL1       -0.2503
     16 O          -0.0024   28.2411   10.9453 O.3     1  UNL1       -0.4802
     17 H          -0.2306   28.9457   10.2932 H       1  UNL1        0.2951
@<TRIPOS>BOND
     1     9    10    1
     2     9    11    1
     3     9    12    1
     4    10     1    1
     5     1    13    1
     6     1     2    1
     7    13    14    1
     8    14    15    2
     9    14    16    1
    10    16    17    1
    11     2     3   ar
    12     2     8   ar
    13     3     4   ar
    14     4     5   ar
    15     5     6    1
    16     5     7   ar
    17     7     8   ar
#	Name:			CHEMBL702
#	Creating user name:	trannguyen
#	Creation time:		Tue Feb  8 18:26:14 2022


#	Modifying user name:	trannguyen
#	Modification time:	Tue Feb  8 18:26:14 2022

@<TRIPOS>MOLECULE
CHEMBL702
 39 42 0 0 0
SMALL
GASTEIGER

@<TRIPOS>ATOM
      1 CA          6.5845   32.8791    3.1491 C.3     1  UNL1        0.1727
      2 N          10.8516   31.7912    7.7558 N.am    1  UNL1       -0.2706
      3 C          11.0770   33.1956    7.4568 C.3     1  UNL1        0.1158
      4 C          10.6162   33.4758    6.0166 C.3     1  UNL1        0.1244
      5 N           9.2146   33.0938    5.8025 N.am    1  UNL1       -0.2053
      6 C           8.6616   33.2661    4.5322 C.2     1  UNL1        0.3107
      7 O           9.2993   33.7054    3.5760 O.2     1  UNL1       -0.2521
      8 N           7.3776   32.8097    4.3831 N.am    1  UNL1       -0.2788
      9 C           8.6331   32.2205    6.7243 C.2     1  UNL1        0.3098
     10 O           7.4456   32.2419    7.0275 O.2     1  UNL1       -0.2645
     11 C           9.6109   31.2487    7.4324 C.2     1  UNL1        0.3034
     12 O           9.2884   30.0840    7.6100 O.2     1  UNL1       -0.2649
     13 H           6.8373   32.7217    5.2429 H       1  UNL1        0.1517
     14 C          11.9254   30.9285    9.8340 C.3     1  UNL1        0.0233
     15 C          11.9130   30.9587    8.3148 C.3     1  UNL1        0.0940
     16 C           5.1287   32.5259    3.4633 C.ar    1  UNL1        0.0043
     17 C           4.7401   31.2458    3.8910 C.ar    1  UNL1       -0.0022
     18 C           3.3994   30.9443    4.1456 C.ar    1  UNL1       -0.0003
     19 C           2.4304   31.9379    4.0572 C.ar    1  UNL1       -0.0000
     20 C           2.8005   33.2296    3.6924 C.ar    1  UNL1       -0.0003
     21 C           4.1349   33.5192    3.3843 C.ar    1  UNL1       -0.0022
     22 C           7.2088   32.0620    1.9532 C.2     1  UNL1        0.2451
     23 O           7.1400   30.8405    1.8204 O.2     1  UNL1       -0.2729
     24 N           7.7177   32.8256    0.9176 N.am    1  UNL1       -0.2947
     25 H           7.7268   33.8381    1.0358 H       1  UNL1        0.1500
     26 CA          8.0589   32.2223   -0.3971 C.3     1  UNL1        0.1777
     27 C           9.4743   32.4491   -1.0227 C.2     1  UNL1        0.2471
     28 O          10.6672   32.4661   -0.6943 O.2     1  UNL1       -0.2730
     29 N           8.8942   32.7509   -2.2423 N.am    1  UNL1       -0.2597
     30 CA          9.4556   33.7759   -3.1394 C.3     1  UNL1        0.1843
     31 C           8.9321   35.1637   -2.6680 C.3     1  UNL1        0.0679
     32 C           8.3174   36.0780   -3.7360 C.3     1  UNL1        0.0131
     33 C          10.0602   35.9378   -1.9656 C.3     1  UNL1        0.0131
     34 S           7.5645   34.8588   -1.4344 S.3     1  UNL1       -0.1185
     35 C           7.5922   33.0417   -1.6306 C.3     1  UNL1        0.1509
     36 C           9.0791   33.3633   -4.5729 C.2     1  UNL1        0.3329
     37 O           7.9812   32.9600   -4.9209 O.2     1  UNL1       -0.2484
     38 OXT        10.0906   33.5360   -5.4664 O.3     1  UNL1       -0.4790
     39 HXT        10.8445   33.9824   -5.0287 H       1  UNL1        0.2951
@<TRIPOS>BOND
     1    14    15    1
     2    15     2    1
     3     2     3    1
     4     2    11   am
     5     3     4    1
     6     4     5    1
     7     5     6   am
     8     5     9   am
     9     6     7    2
    10     6     8   am
    11     8     1    1
    12     8    13    1
    13     1    22    1
    14     1    16    1
    15    22    23    2
    16    22    24   am
    17    24    25    1
    18    26    27    1
    19    26    35    1
    20    26    24    1
    21    27    28    2
    22    27    29   am
    23    29    30    1
    24    29    35    1
    25    30    31    1
    26    30    36    1
    27    36    37    2
    28    36    38    1
    29    38    39    1
    30    31    32    1
    31    31    33    1
    32    31    34    1
    33    34    35    1
    34    16    17   ar
    35    16    21   ar
    36    17    18   ar
    37    18    19   ar
    38    19    20   ar
    39    20    21   ar
    40     9    10    2
    41     9    11    1
    42    11    12    2
#	Name:			CHEMBL70586
#	Creating user name:	trannguyen
#	Creation time:		Tue Feb  8 18:26:14 2022


#	Modifying user name:	trannguyen
#	Modification time:	Tue Feb  8 18:26:14 2022

@<TRIPOS>MOLECULE
CHEMBL70586
 28 31 0 0 0
SMALL
GASTEIGER

@<TRIPOS>ATOM
      1 C           8.0489   34.1134   10.4630 C.3     1  UNL1        0.0901
      2 C           9.1725   33.3658   11.2200 C.3     1  UNL1        0.0236
      3 C          10.2919   32.8786   10.3015 C.3     1  UNL1        0.0290
      4 C          10.8276   33.9206    9.3115 C.3     1  UNL1        0.0942
      5 C          11.5191   33.1979    8.1446 C.3     1  UNL1        0.0298
      6 C          12.5276   34.2105    7.6744 C.3     1  UNL1        0.0345
      7 C          12.9577   34.8505    8.9778 C.3     1  UNL1        0.1420
      8 O          11.8941   34.6697    9.9298 O.3     1  UNL1       -0.3585
      9 C           9.7629   34.9087    8.7876 C.3     1  UNL1        0.0448
     10 C           8.7056   35.3896    9.8109 C.3     1  UNL1        0.0780
     11 N           9.1941   36.4043   10.7943 N.3     1  UNL1       -0.2723
     12 C           9.9557   37.4776   10.1298 C.3     1  UNL1        0.0721
     13 C           9.8818   38.6346   11.1054 C.3     1  UNL1        0.0188
     14 C           8.4565   38.5616   11.6052 C.3     1  UNL1        0.0188
     15 C           8.0849   37.0867   11.4959 C.3     1  UNL1        0.0721
     16 C           7.4258   33.4594    8.0935 C.3     1  UNL1        0.1148
     17 N           7.2278   33.2286    9.5269 N.am    1  UNL1       -0.2778
     18 C           6.7435   31.9764   10.0011 C.2     1  UNL1        0.2301
     19 O           6.7617   31.6503   11.1920 O.2     1  UNL1       -0.2745
     20 C           6.1305   31.0313    8.9708 C.3     1  UNL1        0.1116
     21 C           4.8238   30.4027    9.4311 C.ar    1  UNL1       -0.0122
     22 C           4.8266   29.1674   10.0955 C.ar    1  UNL1       -0.0029
     23 C           3.6335   28.6076   10.5629 C.ar    1  UNL1        0.0119
     24 C           2.4217   29.2761   10.3755 C.ar    1  UNL1        0.0682
     25 CL          0.9866   28.5257   10.9801 Cl      1  UNL1       -0.0814
     26 C           2.4058   30.5097    9.7170 C.ar    1  UNL1        0.0679
     27 CL          0.9428   31.3853    9.4305 Cl      1  UNL1       -0.0814
     28 C           3.6036   31.0726    9.2555 C.ar    1  UNL1        0.0085
@<TRIPOS>BOND
     1    16    17    1
     2    17    18   am
     3    17     1    1
     4    18    19    2
     5    18    20    1
     6    20    21    1
     7    21    22   ar
     8    21    28   ar
     9    22    23   ar
    10    23    24   ar
    11    24    25    1
    12    24    26   ar
    13    26    27    1
    14    26    28   ar
    15     1     2    1
    16     1    10    1
    17     2     3    1
    18     4     3    1
    19     4     5    1
    20     4     8    1
    21     4     9    1
    22     5     6    1
    23     6     7    1
    24     7     8    1
    25     9    10    1
    26    10    11    1
    27    11    12    1
    28    11    15    1
    29    12    13    1
    30    13    14    1
    31    14    15    1
#	Name:			CHEMBL707
#	Creating user name:	trannguyen
#	Creation time:		Tue Feb  8 18:26:14 2022


#	Modifying user name:	trannguyen
#	Modification time:	Tue Feb  8 18:26:14 2022

@<TRIPOS>MOLECULE
CHEMBL707
 35 39 0 0 0
SMALL
GASTEIGER

@<TRIPOS>ATOM
      1 N           8.3865   34.0955   -1.4006 N.pl3   1  UNL1       -0.2747
      2 C           8.5596   32.6299   -1.3772 C.3     1  UNL1        0.1151
      3 C           8.9527   32.1562    0.0308 C.3     1  UNL1        0.1150
      4 N           8.0138   32.6554    1.0433 N.am    1  UNL1       -0.2730
      5 C           7.3292   31.7523    1.8479 C.2     1  UNL1        0.2699
      6 O           7.5347   30.5456    1.7693 O.2     1  UNL1       -0.2708
      7 C           7.8389   34.1160    1.0163 C.3     1  UNL1        0.1150
      8 C           7.4481   34.6151   -0.3878 C.3     1  UNL1        0.1151
      9 C           6.7770   33.7268   -7.1675 C.ar    1  UNL1        0.1739
     10 C           7.0764   33.2991   -5.8609 C.ar    1  UNL1        0.0593
     11 C           7.4489   34.1777   -4.8506 C.ar    1  UNL1        0.0901
     12 N           7.7419   33.7144   -3.6302 N.ar    1  UNL1       -0.2134
     13 C           8.0698   34.5934   -2.6697 C.ar    1  UNL1        0.2214
     14 N           8.0955   35.9178   -2.8697 N.ar    1  UNL1       -0.1991
     15 C           7.8196   36.3696   -4.0922 C.ar    1  UNL1        0.1298
     16 N           7.8851   37.7619   -4.2362 N.pl3   1  UNL1       -0.3425
     17 C           7.4985   35.5322   -5.1552 C.ar    1  UNL1        0.0522
     18 C           7.2380   35.9795   -6.4663 C.ar    1  UNL1        0.0443
     19 C           6.8985   35.0855   -7.4841 C.ar    1  UNL1        0.1726
     20 H           8.1141   38.1349   -3.3172 H       1  UNL1        0.1437
     21 H           6.9973   38.1285   -4.5623 H       1  UNL1        0.1437
     22 C           7.3393   31.6443   -8.2175 C.3     1  UNL1        0.2526
     23 O           6.4077   32.6903   -7.9847 O.3     1  UNL1       -0.4683
     24 O           6.6349   35.5209   -8.7540 O.3     1  UNL1       -0.4684
     25 C           6.3623   36.9131   -8.8944 C.3     1  UNL1        0.2526
     26 C           6.3395   32.3165    2.8748 C.3     1  UNL1        0.2845
     27 C           7.0285   32.5360    4.2186 C.3     1  UNL1        0.2583
     28 O           6.1347   33.1938    5.1298 O.3     1  UNL1       -0.4679
     29 C           4.9144   32.5680    5.1472 C.ar    1  UNL1        0.1724
     30 C           4.0840   32.8357    6.2325 C.ar    1  UNL1        0.0400
     31 C           2.8477   32.1958    6.3329 C.ar    1  UNL1        0.0033
     32 C           2.4400   31.3000    5.3422 C.ar    1  UNL1        0.0033
     33 C           3.2628   31.0497    4.2434 C.ar    1  UNL1        0.0401
     34 C           4.4946   31.6912    4.1417 C.ar    1  UNL1        0.1729
     35 O           5.2529   31.3952    3.0396 O.3     1  UNL1       -0.4630
@<TRIPOS>BOND
     1    22    23    1
     2    23     9    1
     3     9    10   ar
     4     9    19   ar
     5    10    11   ar
     6    11    12   ar
     7    11    17   ar
     8    12    13   ar
     9    13     1    1
    10    13    14   ar
    11     1     2    1
    12     1     8    1
    13     2     3    1
    14     3     4    1
    15     4     5   am
    16     4     7    1
    17     5     6    2
    18     5    26    1
    19    26    27    1
    20    26    35    1
    21    27    28    1
    22    28    29    1
    23    29    30   ar
    24    29    34   ar
    25    30    31   ar
    26    31    32   ar
    27    32    33   ar
    28    33    34   ar
    29    34    35    1
    30     7     8    1
    31    14    15   ar
    32    15    16    1
    33    15    17   ar
    34    16    20    1
    35    16    21    1
    36    17    18   ar
    37    18    19   ar
    38    19    24    1
    39    24    25    1
#	Name:			CHEMBL70927
#	Creating user name:	trannguyen
#	Creation time:		Tue Feb  8 18:26:14 2022


#	Modifying user name:	trannguyen
#	Modification time:	Tue Feb  8 18:26:14 2022

@<TRIPOS>MOLECULE
CHEMBL70927
 11 11 0 0 0
SMALL
GASTEIGER

@<TRIPOS>ATOM
      1 C           0.3042   30.5993    9.1768 C.3     1  UNL1        0.0534
      2 C           1.4250   29.6942    9.6462 C.ar    1  UNL1        0.0747
      3 C           1.1732   28.5866   10.3906 C.ar    1  UNL1        0.1847
      4 O          -0.0876   28.1240   10.7202 O.3     1  UNL1       -0.5020
      5 C           2.3383   27.7917   10.9169 C.ar    1  UNL1        0.2316
      6 O           2.1982   26.7902   11.6117 O.2     1  UNL1       -0.2832
      7 C           3.6955   28.2503   10.5630 C.ar    1  UNL1        0.0639
      8 C           3.8096   29.3350    9.7951 C.ar    1  UNL1        0.0792
      9 N           2.7460   30.0814    9.3071 N.ar    1  UNL1       -0.3248
     10 C           3.0208   31.2733    8.4898 C.3     1  UNL1        0.1303
     11 H          -0.7226   28.4313   10.0582 H       1  UNL1        0.2924
@<TRIPOS>BOND
     1     1     2    1
     2     2     3   ar
     3     2     9   ar
     4     3     4    1
     5     3     5   ar
     6     4    11    1
     7     5     6    2
     8     5     7   ar
     9     7     8   ar
    10     8     9   ar
    11     9    10    1
#	Name:			CHEMBL710
#	Creating user name:	trannguyen
#	Creation time:		Tue Feb  8 18:26:14 2022


#	Modifying user name:	trannguyen
#	Modification time:	Tue Feb  8 18:26:14 2022

@<TRIPOS>MOLECULE
CHEMBL710
 29 32 0 0 0
SMALL
GASTEIGER

@<TRIPOS>ATOM
      1 C           5.7267   33.1851    8.1205 C.3     1  UNL1        0.0765
      2 C           5.6472   34.0522    9.3920 C.3     1  UNL1        0.0091
      3 C           6.5268   33.3788   10.4351 C.3     1  UNL1        0.0005
      4 C           7.5599   32.5734    9.6292 C.3     1  UNL1        0.0005
      5 C           8.7566   33.4553    9.1823 C.3     1  UNL1        0.0004
      6 C           9.6448   33.9061   10.3558 C.3     1  UNL1        0.0017
      7 C          10.5678   32.8069   10.8630 C.3     1  UNL1        0.0199
      8 C          11.4897   32.2875    9.7596 C.3     1  UNL1        0.0755
      9 N          12.4904   33.2932    9.4232 N.am    1  UNL1       -0.3022
     10 C          13.3309   33.1467    8.3596 C.2     1  UNL1        0.2456
     11 O          14.3805   33.7798    8.2595 O.2     1  UNL1       -0.2702
     12 C          12.9052   32.2013    7.3119 C.2     1  UNL1        0.0532
     13 C          11.7057   31.5986    7.3543 C.2     1  UNL1       -0.0205
     14 C          10.7079   31.7841    8.4995 C.3     1  UNL1        0.0352
     15 C          10.1622   30.3771    8.8158 C.3     1  UNL1        0.0060
     16 C           9.6178   32.8366    8.0539 C.3     1  UNL1        0.0053
     17 C           8.7045   32.4356    6.8809 C.3     1  UNL1        0.0004
     18 C           7.5251   31.5445    7.2508 C.3     1  UNL1        0.0005
     19 C           6.6940   32.0037    8.4649 C.3     1  UNL1        0.0082
     20 C           5.9214   30.7587    8.9758 C.3     1  UNL1        0.0005
     21 H          12.8893   33.8607   10.1626 H       1  UNL1        0.1497
     22 N           4.2851   32.3666    6.3224 N.am    1  UNL1       -0.3075
     23 C           4.3283   32.7705    7.6422 C.2     1  UNL1        0.2219
     24 O           3.3513   32.7688    8.3832 O.2     1  UNL1       -0.2751
     25 H           5.0827   32.6174    5.7527 H       1  UNL1        0.1493
     26 C           2.3460   33.3043    5.1065 C.3     1  UNL1        0.0196
     27 C           3.0478   32.0267    5.5937 C.3     1  UNL1        0.0569
     28 C           2.0776   31.1934    6.4493 C.3     1  UNL1        0.0196
     29 C           3.4395   31.1814    4.3676 C.3     1  UNL1        0.0196
@<TRIPOS>BOND
     1    26    27    1
     2    27    28    1
     3    27    29    1
     4    27    22    1
     5    22    23   am
     6    22    25    1
     7    23    24    2
     8    23     1    1
     9     1     2    1
    10     1    19    1
    11     2     3    1
    12     3     4    1
    13     4     5    1
    14     4    19    1
    15     5     6    1
    16     5    16    1
    17     6     7    1
    18     7     8    1
    19     8     9    1
    20     8    14    1
    21     9    10   am
    22     9    21    1
    23    10    12    1
    24    10    11    2
    25    12    13    2
    26    13    14    1
    27    14    16    1
    28    14    15    1
    29    16    17    1
    30    17    18    1
    31    18    19    1
    32    19    20    1
#	Name:			CHEMBL711
#	Creating user name:	trannguyen
#	Creation time:		Tue Feb  8 18:26:14 2022


#	Modifying user name:	trannguyen
#	Modification time:	Tue Feb  8 18:26:14 2022

@<TRIPOS>MOLECULE
CHEMBL711
 17 19 0 0 0
SMALL
GASTEIGER

@<TRIPOS>ATOM
      1 O           0.2513   31.7617    8.2896 O.2     1  UNL1       -0.2905
      2 C           1.4326   31.5026    8.4379 C.2     1  UNL1        0.1841
      3 C           1.9081   30.3565    9.2113 C.ar    1  UNL1        0.0382
      4 C           1.1625   29.3978    9.8733 C.ar    1  UNL1        0.0030
      5 C           1.8588   28.3898   10.5469 C.ar    1  UNL1        0.0001
      6 C           3.2671   28.3615   10.5451 C.ar    1  UNL1        0.0001
      7 C           4.0018   29.3411    9.8702 C.ar    1  UNL1        0.0030
      8 C           3.2942   30.3288    9.2096 C.ar    1  UNL1        0.0382
      9 C           3.8122   31.4600    8.4421 C.2     1  UNL1        0.1841
     10 O           5.0017   31.6950    8.3196 O.2     1  UNL1       -0.2905
     11 C           2.6363   32.2610    7.8975 C.3     1  UNL1        0.1457
     12 C           2.6919   32.4272    6.3935 C.ar    1  UNL1       -0.0079
     13 C           2.9571   33.6558    5.7693 C.ar    1  UNL1       -0.0034
     14 C           2.9766   33.7586    4.3758 C.ar    1  UNL1       -0.0003
     15 C           2.7250   32.6396    3.5863 C.ar    1  UNL1       -0.0000
     16 C           2.4514   31.4152    4.1886 C.ar    1  UNL1       -0.0003
     17 C           2.4327   31.3103    5.5805 C.ar    1  UNL1       -0.0034
@<TRIPOS>BOND
     1     1     2    2
     2     2     3    1
     3     2    11    1
     4     3     4   ar
     5     3     8   ar
     6     4     5   ar
     7     5     6   ar
     8     6     7   ar
     9     7     8   ar
    10     8     9    1
    11     9    10    2
    12     9    11    1
    13    11    12    1
    14    12    13   ar
    15    12    17   ar
    16    13    14   ar
    17    14    15   ar
    18    15    16   ar
    19    16    17   ar
#	Name:			CHEMBL712
#	Creating user name:	trannguyen
#	Creation time:		Tue Feb  8 18:26:14 2022


#	Modifying user name:	trannguyen
#	Modification time:	Tue Feb  8 18:26:14 2022

@<TRIPOS>MOLECULE
CHEMBL712
 19 21 0 0 0
SMALL
GASTEIGER

@<TRIPOS>ATOM
      1 C           2.6654   32.0147    8.5805 C.3     1  UNL1        0.1457
      2 C           1.2332   31.5176    8.6921 C.2     1  UNL1        0.1841
      3 O           0.2298   32.0000    8.1938 O.2     1  UNL1       -0.2905
      4 C           1.2220   30.2986    9.4937 C.ar    1  UNL1        0.0382
      5 C           0.1556   29.4614    9.7663 C.ar    1  UNL1        0.0030
      6 C           0.4104   28.3228   10.5344 C.ar    1  UNL1        0.0001
      7 C           1.7075   28.0509   11.0131 C.ar    1  UNL1        0.0001
      8 C           2.7728   28.9099   10.7256 C.ar    1  UNL1        0.0030
      9 C           2.5025   30.0269    9.9562 C.ar    1  UNL1        0.0382
     10 C           3.4334   31.0508    9.4777 C.2     1  UNL1        0.1841
     11 O           4.6107   31.0886    9.7852 O.2     1  UNL1       -0.2905
     12 C           4.1212   32.0572    4.4960 C.ar    1  UNL1        0.1387
     13 C           2.9766   31.3386    4.8390 C.ar    1  UNL1        0.0366
     14 C           2.5185   31.3261    6.1612 C.ar    1  UNL1       -0.0003
     15 C           3.2015   32.0259    7.1647 C.ar    1  UNL1       -0.0077
     16 C           4.3446   32.7570    6.8062 C.ar    1  UNL1       -0.0003
     17 C           4.8006   32.7646    5.4862 C.ar    1  UNL1        0.0366
     18 C           5.6854   33.1266    3.0718 C.3     1  UNL1        0.2525
     19 O           4.6685   32.1484    3.2459 O.3     1  UNL1       -0.4714
@<TRIPOS>BOND
     1    18    19    1
     2    19    12    1
     3    12    13   ar
     4    12    17   ar
     5    13    14   ar
     6    14    15   ar
     7    15     1    1
     8    15    16   ar
     9     1     2    1
    10     1    10    1
    11     2     3    2
    12     2     4    1
    13     4     5   ar
    14     4     9   ar
    15     5     6   ar
    16     6     7   ar
    17     7     8   ar
    18     8     9   ar
    19     9    10    1
    20    10    11    2
    21    16    17   ar
#	Name:			CHEMBL714
#	Creating user name:	trannguyen
#	Creation time:		Tue Feb  8 18:26:14 2022


#	Modifying user name:	trannguyen
#	Modification time:	Tue Feb  8 18:26:14 2022

@<TRIPOS>MOLECULE
CHEMBL714
 21 21 0 0 0
SMALL
GASTEIGER

@<TRIPOS>ATOM
      1 C           3.9896   30.2993    9.4864 C.ar    1  UNL1        0.0056
      2 C           4.7874   29.1797    9.7871 C.ar    1  UNL1        0.0012
      3 C           4.1954   27.9735   10.1684 C.ar    1  UNL1        0.0361
      4 C           2.8073   27.8601   10.2217 C.ar    1  UNL1        0.1320
      5 O           2.2258   26.6849   10.5958 O.3     1  UNL1       -0.5057
      6 C           1.9851   28.9438    9.9034 C.ar    1  UNL1        0.0404
      7 C           2.5897   30.1642    9.5619 C.ar    1  UNL1       -0.0008
      8 H           2.9202   26.0334   10.7781 H       1  UNL1        0.2922
      9 C           4.6266   31.6175    9.0750 C.3     1  UNL1        0.1484
     10 O           5.2246   32.2478   10.2062 O.3     1  UNL1       -0.3786
     11 H           4.5304   32.8383   10.5610 H       1  UNL1        0.2108
     12 C           3.6536   32.6172    8.3775 C.3     1  UNL1        0.1027
     13 N           4.2249   33.1969    7.1435 N.3     1  UNL1       -0.2973
     14 H           4.1212   34.2140    7.1991 H       1  UNL1        0.1233
     15 C           4.6507   32.1447    4.9045 C.3     1  UNL1        0.0158
     16 C           3.6155   32.7405    5.8737 C.3     1  UNL1        0.0421
     17 C           3.0096   33.9955    5.2125 C.3     1  UNL1        0.0158
     18 C           2.4787   31.7313    6.1122 C.3     1  UNL1        0.0158
     19 C           0.4800   28.8554    9.9342 C.3     1  UNL1        0.1666
     20 O           0.0322   28.1768   11.0984 O.3     1  UNL1       -0.3771
     21 H           0.7299   27.5434   11.3386 H       1  UNL1        0.2109
@<TRIPOS>BOND
     1    15    16    1
     2    16    17    1
     3    16    18    1
     4    16    13    1
     5    13    12    1
     6    13    14    1
     7    12     9    1
     8     9    10    1
     9     9     1    1
    10    10    11    1
    11     1     2   ar
    12     1     7   ar
    13     2     3   ar
    14     3     4   ar
    15     4     5    1
    16     4     6   ar
    17     5     8    1
    18     6    19    1
    19     6     7   ar
    20    19    20    1
    21    20    21    1
#	Name:			CHEMBL715
#	Creating user name:	trannguyen
#	Creation time:		Tue Feb  8 18:26:14 2022


#	Modifying user name:	trannguyen
#	Modification time:	Tue Feb  8 18:26:14 2022

@<TRIPOS>MOLECULE
CHEMBL715
 23 26 0 0 0
SMALL
GASTEIGER

@<TRIPOS>ATOM
      1 C           4.2776   33.1289    3.6210 C.3     1  UNL1        0.0382
      2 C           3.8928   32.7673    5.0129 C.ar    1  UNL1        0.0091
      3 C           4.7072   32.4552    6.0772 C.ar    1  UNL1        0.0114
      4 C           3.9803   32.1657    7.2927 C.ar    1  UNL1        0.1020
      5 C           2.6209   32.2098    7.0627 C.ar    1  UNL1        0.0857
      6 S           2.2519   32.7167    5.4639 S.2     1  UNL1       -0.0764
      7 N           1.5982   31.9254    7.9035 N.pl3   1  UNL1       -0.3045
      8 C           1.6693   30.8697    8.8435 C.ar    1  UNL1        0.0923
      9 C           0.4727   30.1646    9.1049 C.ar    1  UNL1        0.0184
     10 C           0.4368   29.0816    9.9833 C.ar    1  UNL1        0.0015
     11 C           1.5975   28.6892   10.6312 C.ar    1  UNL1        0.0039
     12 C           2.7798   29.3939   10.4061 C.ar    1  UNL1        0.0479
     13 C           2.8436   30.4877    9.5223 C.ar    1  UNL1        0.2064
     14 N           4.0800   31.1480    9.5228 N.2     1  UNL1       -0.0388
     15 C           4.5878   31.8883    8.5908 C.2     1  UNL1        0.3256
     16 H           0.6738   32.0168    7.4952 H       1  UNL1        0.1528
     17 N           5.8421   32.4854    8.7353 N.pl3   1  UNL1       -0.1877
     18 C           5.8925   33.8942    9.1924 C.3     1  UNL1        0.2197
     19 C           5.8870   33.9827   10.7365 C.3     1  UNL1        0.1237
     20 N           6.9433   33.1984   11.4141 N.3     1  UNL1       -0.2645
     21 C           8.2613   33.8067   11.2566 C.3     1  UNL1        0.0898
     22 C           6.9120   31.8087   10.9002 C.3     1  UNL1        0.1237
     23 C           6.9165   31.6818    9.3587 C.3     1  UNL1        0.2197
@<TRIPOS>BOND
     1     1     2    1
     2     2     3   ar
     3     2     6   ar
     4     3     4   ar
     5     4     5   ar
     6     4    15    1
     7     5     6   ar
     8     5     7    1
     9     7     8    1
    10     7    16    1
    11     8     9   ar
    12     8    13   ar
    13     9    10   ar
    14    10    11   ar
    15    11    12   ar
    16    12    13   ar
    17    13    14    1
    18    14    15    2
    19    15    17    1
    20    17    18    1
    21    17    23    1
    22    18    19    1
    23    19    20    1
    24    20    21    1
    25    20    22    1
    26    22    23    1
#	Name:			CHEMBL716
#	Creating user name:	trannguyen
#	Creation time:		Tue Feb  8 18:26:14 2022


#	Modifying user name:	trannguyen
#	Modification time:	Tue Feb  8 18:26:14 2022

@<TRIPOS>MOLECULE
CHEMBL716
 28 31 0 0 0
SMALL
GASTEIGER

@<TRIPOS>ATOM
      1 C           4.9822   32.0090    8.7842 C.2     1  UNL1        0.3244
      2 N           5.0227   31.0848    9.7089 N.2     1  UNL1       -0.0396
      3 C           4.1279   30.0029    9.7864 C.ar    1  UNL1        0.1990
      4 C           4.6796   28.7311    9.9796 C.ar    1  UNL1        0.0471
      5 C           3.8659   27.6116   10.1696 C.ar    1  UNL1        0.0038
      6 C           2.4812   27.7551   10.1866 C.ar    1  UNL1        0.0008
      7 C           1.9115   29.0146   10.0068 C.ar    1  UNL1        0.0102
      8 C           2.7253   30.1382    9.8068 C.ar    1  UNL1        0.0724
      9 S           1.9298   31.7135    9.4876 S.3     1  UNL1       -0.0830
     10 C           2.6270   31.9537    7.8610 C.ar    1  UNL1        0.0367
     11 C           1.7594   32.0481    6.7659 C.ar    1  UNL1        0.0067
     12 C           2.2667   32.1459    5.4679 C.ar    1  UNL1        0.0005
     13 C           3.6439   32.1406    5.2511 C.ar    1  UNL1        0.0003
     14 C           4.5178   32.0577    6.3351 C.ar    1  UNL1        0.0079
     15 C           4.0106   31.9805    7.6405 C.ar    1  UNL1        0.0882
     16 N           8.1288   34.9666    9.5194 N.3     1  UNL1       -0.2636
     17 C           8.1519   34.0841    8.3269 C.3     1  UNL1        0.1237
     18 C           7.2874   32.8059    8.4238 C.3     1  UNL1        0.2197
     19 N           5.8927   33.0841    8.8602 N.pl3   1  UNL1       -0.1877
     20 C           5.8293   33.9985   10.0243 C.3     1  UNL1        0.2197
     21 C           6.7098   35.2471    9.8183 C.3     1  UNL1        0.1237
     22 C           8.8518   34.3396   10.6444 C.3     1  UNL1        0.1048
     23 C          10.2899   33.8987   10.3236 C.3     1  UNL1        0.1595
     24 O          10.4014   32.4898   10.5550 O.3     1  UNL1       -0.3496
     25 C          11.3090   31.8828    9.6355 C.3     1  UNL1        0.1738
     26 O          11.6458   29.6443    8.7933 O.3     1  UNL1       -0.3794
     27 C          10.6623   30.6443    9.0283 C.3     1  UNL1        0.1692
     28 H          11.1863   28.8904    8.3846 H       1  UNL1        0.2105
@<TRIPOS>BOND
     1    26    27    1
     2    26    28    1
     3    27    25    1
     4    25    24    1
     5    24    23    1
     6    23    22    1
     7    22    16    1
     8    16    17    1
     9    16    21    1
    10    17    18    1
    11    18    19    1
    12    19     1    1
    13    19    20    1
    14     1     2    2
    15     1    15    1
    16     2     3    1
    17     3     4   ar
    18     3     8   ar
    19     4     5   ar
    20     5     6   ar
    21     6     7   ar
    22     7     8   ar
    23     8     9    1
    24     9    10    1
    25    10    11   ar
    26    10    15   ar
    27    11    12   ar
    28    12    13   ar
    29    13    14   ar
    30    14    15   ar
    31    20    21    1
#	Name:			CHEMBL717
#	Creating user name:	trannguyen
#	Creation time:		Tue Feb  8 18:26:14 2022


#	Modifying user name:	trannguyen
#	Modification time:	Tue Feb  8 18:26:14 2022

@<TRIPOS>MOLECULE
CHEMBL717
 28 31 0 0 0
SMALL
GASTEIGER

@<TRIPOS>ATOM
      1 C           9.5055   33.0433    7.5859 C.3     1  UNL1        0.1859
      2 C           9.4818   32.3884    6.1978 C.3     1  UNL1        0.0474
      3 C           8.0161   32.4297    5.7933 C.3     1  UNL1        0.0042
      4 C           7.2078   32.1712    7.0800 C.3     1  UNL1        0.0038
      5 C           5.9171   33.0172    7.1413 C.3     1  UNL1        0.0007
      6 C           4.9573   32.7750    5.9600 C.3     1  UNL1        0.0040
      7 C           4.0335   31.5687    6.1458 C.3     1  UNL1        0.0184
      8 C           3.2424   31.3230    4.8533 C.3     1  UNL1        0.0043
      9 C           3.2016   31.7764    7.4080 C.2     1  UNL1       -0.0423
     10 C           1.8498   31.7865    7.3973 C.2     1  UNL1        0.0289
     11 C           1.0473   31.8416    8.6445 C.2     1  UNL1        0.1725
     12 O          -0.1794   31.8678    8.5661 O.2     1  UNL1       -0.2914
     13 C           1.7689   31.7552    9.9591 C.3     1  UNL1        0.0694
     14 C           3.1195   32.4456    9.8597 C.3     1  UNL1        0.0118
     15 C           4.0210   31.9175    8.6966 C.3     1  UNL1        0.0157
     16 C           4.5181   30.5001    9.0677 C.3     1  UNL1        0.0041
     17 C           5.1902   32.9715    8.5145 C.3     1  UNL1        0.0035
     18 C           6.1696   33.0032    9.7126 C.3     1  UNL1        0.0004
     19 C           7.5992   33.3766    9.3312 C.3     1  UNL1        0.0038
     20 C           8.2064   32.4316    8.2641 C.3     1  UNL1        0.0401
     21 C           8.5060   31.0530    8.9141 C.3     1  UNL1        0.0039
     22 C          10.7815   32.7421    8.4256 C.2     1  UNL1        0.1869
     23 C          11.8598   31.8729    7.8194 C.3     1  UNL1        0.0760
     24 O          10.9055   33.1771    9.5751 O.2     1  UNL1       -0.2924
     25 O           9.2920   34.4645    7.3912 O.3     1  UNL1       -0.4486
     26 C          10.5680   36.3353    8.0264 C.3     1  UNL1        0.1212
     27 C          10.3589   35.2339    7.0334 C.2     1  UNL1        0.3177
     28 O          10.9866   35.1359    5.9894 O.2     1  UNL1       -0.2501
@<TRIPOS>BOND
     1    26    27    1
     2    27    28    2
     3    27    25    1
     4     1     2    1
     5     1    20    1
     6     1    25    1
     7     1    22    1
     8    22    23    1
     9    22    24    2
    10     2     3    1
    11     3     4    1
    12     4     5    1
    13     4    20    1
    14     5     6    1
    15     5    17    1
    16     6     7    1
    17     7     9    1
    18     7     8    1
    19     9    10    2
    20     9    15    1
    21    10    11    1
    22    11    13    1
    23    11    12    2
    24    13    14    1
    25    14    15    1
    26    15    17    1
    27    15    16    1
    28    17    18    1
    29    18    19    1
    30    19    20    1
    31    20    21    1
#	Name:			CHEMBL71
#	Creating user name:	trannguyen
#	Creation time:		Tue Feb  8 18:26:14 2022


#	Modifying user name:	trannguyen
#	Modification time:	Tue Feb  8 18:26:14 2022

@<TRIPOS>MOLECULE
CHEMBL71
 21 23 0 0 0
SMALL
GASTEIGER

@<TRIPOS>ATOM
      1 N           3.2459   31.8046    8.7386 N.pl3   1  UNL1       -0.2860
      2 C           2.3697   30.7789    9.1912 C.ar    1  UNL1        0.0576
      3 C           0.9679   30.9163    9.1059 C.ar    1  UNL1        0.0153
      4 C           0.0907   29.9158    9.5399 C.ar    1  UNL1        0.0013
      5 C           0.5923   28.7533   10.1077 C.ar    1  UNL1        0.0006
      6 C           1.9667   28.6069   10.2465 C.ar    1  UNL1        0.0077
      7 C           2.8536   29.6026    9.8002 C.ar    1  UNL1        0.0431
      8 S           4.5834   29.2501   10.0049 S.3     1  UNL1       -0.0844
      9 C           5.3263   30.8248    9.6592 C.ar    1  UNL1        0.0431
     10 C           6.6984   30.9327    9.9604 C.ar    1  UNL1        0.0086
     11 C           7.3916   32.1144    9.7258 C.ar    1  UNL1        0.0120
     12 C           6.7060   33.1970    9.2020 C.ar    1  UNL1        0.0589
     13 CL          7.5451   34.6813    8.9342 Cl      1  UNL1       -0.0822
     14 C           5.3477   33.1020    8.8854 C.ar    1  UNL1        0.0267
     15 C           4.6271   31.9053    9.0816 C.ar    1  UNL1        0.0585
     16 C           2.8609   32.4567    7.4552 C.3     1  UNL1        0.0970
     17 C           2.6478   31.4305    6.3341 C.3     1  UNL1        0.0391
     18 C           1.7511   31.9855    5.2174 C.3     1  UNL1        0.0739
     19 C           3.0524   33.3076    3.6357 C.3     1  UNL1        0.0897
     20 N           2.3868   32.0269    3.8868 N.3     1  UNL1       -0.2703
     21 C           3.3555   30.9330    3.7593 C.3     1  UNL1        0.0897
@<TRIPOS>BOND
     1    19    20    1
     2    20    21    1
     3    20    18    1
     4    18    17    1
     5    17    16    1
     6    16     1    1
     7     1     2    1
     8     1    15    1
     9     2     3   ar
    10     2     7   ar
    11     3     4   ar
    12     4     5   ar
    13     5     6   ar
    14     6     7   ar
    15     7     8    1
    16     8     9    1
    17     9    10   ar
    18     9    15   ar
    19    10    11   ar
    20    11    12   ar
    21    12    13    1
    22    12    14   ar
    23    14    15   ar
#	Name:			CHEMBL720
#	Creating user name:	trannguyen
#	Creation time:		Tue Feb  8 18:26:14 2022


#	Modifying user name:	trannguyen
#	Modification time:	Tue Feb  8 18:26:14 2022

@<TRIPOS>MOLECULE
CHEMBL720
 9 9 0 0 0
SMALL
GASTEIGER

@<TRIPOS>ATOM
      1 C           1.8455   29.0012    9.9531 C.ar    1  UNL1        0.0070
      2 C           2.5973   30.1514    9.6756 C.ar    1  UNL1       -0.0019
      3 C           3.9926   30.1020    9.6681 C.ar    1  UNL1       -0.0002
      4 C           4.6498   28.9009    9.9280 C.ar    1  UNL1       -0.0000
      5 C           3.9130   27.7469   10.1885 C.ar    1  UNL1       -0.0002
      6 C           2.5177   27.7952   10.1963 C.ar    1  UNL1       -0.0019
      7 O          -0.1555   28.0274   10.7967 O.3     1  UNL1       -0.3772
      8 C           0.3445   29.0518    9.9526 C.3     1  UNL1        0.1636
      9 H          -1.1238   28.0927   10.7727 H       1  UNL1        0.2109
@<TRIPOS>BOND
     1     7     8    1
     2     7     9    1
     3     8     1    1
     4     1     2   ar
     5     1     6   ar
     6     2     3   ar
     7     3     4   ar
     8     4     5   ar
     9     5     6   ar
#	Name:			CHEMBL723
#	Creating user name:	trannguyen
#	Creation time:		Tue Feb  8 18:26:14 2022


#	Modifying user name:	trannguyen
#	Modification time:	Tue Feb  8 18:26:14 2022

@<TRIPOS>MOLECULE
CHEMBL723
 33 36 0 0 0
SMALL
GASTEIGER

@<TRIPOS>ATOM
      1 C           8.3093   34.2647    8.4894 C.3     1  UNL1        0.1697
      2 O           9.3653   33.3932    8.9366 O.3     1  UNL1       -0.3793
      3 H           9.6745   32.8758    8.1745 H       1  UNL1        0.2106
      4 C           7.6845   34.9245    9.7427 C.3     1  UNL1        0.1021
      5 N           6.2833   35.3280    9.5000 N.3     1  UNL1       -0.2922
      6 H           6.2220   36.3509    9.5495 H       1  UNL1        0.1234
      7 C           5.3720   34.7335   10.4893 C.3     1  UNL1        0.1166
      8 C           4.1152   34.1200    9.8450 C.3     1  UNL1        0.2226
      9 O           4.1455   32.6878    9.8801 O.3     1  UNL1       -0.4709
     10 C           3.0162   30.6508    9.3290 C.ar    1  UNL1        0.1724
     11 C           1.8104   29.9378    9.1988 C.ar    1  UNL1        0.0400
     12 C           0.5808   30.5988    9.2109 C.ar    1  UNL1        0.0033
     13 C           0.5510   31.9824    9.3189 C.ar    1  UNL1        0.0033
     14 C           1.7421   32.6944    9.4690 C.ar    1  UNL1        0.0400
     15 C           2.9768   32.0365    9.5591 C.ar    1  UNL1        0.1723
     16 C           4.4125   29.0175   10.3586 C.3     1  UNL1        0.2526
     17 O           4.1423   29.8708    9.2474 O.3     1  UNL1       -0.4684
     18 C           7.2823   33.4468    7.6741 C.3     1  UNL1        0.2358
     19 O           6.9580   34.0988    6.4430 O.3     1  UNL1       -0.4728
     20 C           7.2097   33.4602    5.2504 C.ar    1  UNL1        0.1400
     21 C           8.4428   33.5041    4.5664 C.ar    1  UNL1        0.0370
     22 C           8.6636   32.7845    3.3913 C.ar    1  UNL1        0.0046
     23 C           7.6670   31.9871    2.8397 C.ar    1  UNL1        0.0172
     24 C           6.4417   31.9511    3.5100 C.ar    1  UNL1        0.0596
     25 N           5.3148   31.2347    3.1712 N.ar    1  UNL1       -0.3530
     26 H           5.2341   30.6441    2.3717 H       1  UNL1        0.1659
     27 C           4.3171   31.4417    4.0940 C.ar    1  UNL1        0.0567
     28 C           3.0389   30.8694    4.1439 C.ar    1  UNL1        0.0170
     29 C           2.1924   31.2905    5.1685 C.ar    1  UNL1        0.0015
     30 C           2.6061   32.2466    6.0878 C.ar    1  UNL1        0.0001
     31 C           3.9013   32.7891    6.0314 C.ar    1  UNL1        0.0016
     32 C           4.7937   32.3663    5.0191 C.ar    1  UNL1        0.0199
     33 C           6.1700   32.6635    4.6795 C.ar    1  UNL1        0.0509
@<TRIPOS>BOND
     1    16    17    1
     2    17    10    1
     3    10    11   ar
     4    10    15   ar
     5    11    12   ar
     6    12    13   ar
     7    13    14   ar
     8    14    15   ar
     9    15     9    1
    10     9     8    1
    11     8     7    1
    12     7     5    1
    13     5     4    1
    14     5     6    1
    15     4     1    1
    16     1     2    1
    17     1    18    1
    18     2     3    1
    19    18    19    1
    20    19    20    1
    21    20    21   ar
    22    20    33   ar
    23    21    22   ar
    24    22    23   ar
    25    23    24   ar
    26    24    25   ar
    27    24    33   ar
    28    25    26    1
    29    25    27   ar
    30    27    28   ar
    31    27    32   ar
    32    28    29   ar
    33    29    30   ar
    34    30    31   ar
    35    31    32   ar
    36    32    33   ar
#	Name:			CHEMBL726
#	Creating user name:	trannguyen
#	Creation time:		Tue Feb  8 18:26:14 2022


#	Modifying user name:	trannguyen
#	Modification time:	Tue Feb  8 18:26:14 2022

@<TRIPOS>MOLECULE
CHEMBL726
 31 34 0 0 0
SMALL
GASTEIGER

@<TRIPOS>ATOM
      1 N           5.6291   32.4688    6.5992 N.pl3   1  UNL1       -0.2861
      2 C           6.4172   32.5551    5.4062 C.ar    1  UNL1        0.0576
      3 C           7.8061   32.8235    5.4164 C.ar    1  UNL1        0.0153
      4 C           8.5587   33.0227    4.2531 C.ar    1  UNL1        0.0013
      5 C           7.9478   32.9403    3.0124 C.ar    1  UNL1        0.0006
      6 C           6.6019   32.6170    2.9552 C.ar    1  UNL1        0.0077
      7 C           5.8453   32.4031    4.1251 C.ar    1  UNL1        0.0431
      8 S           4.1663   31.9201    3.8385 S.3     1  UNL1       -0.0844
      9 C           3.5169   31.7942    5.4808 C.ar    1  UNL1        0.0431
     10 C           2.1759   31.3642    5.5397 C.ar    1  UNL1        0.0077
     11 C           1.4941   31.2854    6.7440 C.ar    1  UNL1        0.0044
     12 C           2.1441   31.6599    7.9144 C.ar    1  UNL1        0.0727
     13 C           3.4949   32.0731    7.8531 C.ar    1  UNL1        0.0192
     14 C           4.2387   32.1271    6.6490 C.ar    1  UNL1        0.0576
     15 C           1.4149   31.6291    9.2402 C.3     1  UNL1        0.4186
     16 F           0.8130   32.8075    9.5604 F       1  UNL1       -0.1659
     17 F           0.4313   30.6872    9.2719 F       1  UNL1       -0.1659
     18 F           2.2432   31.3388   10.2820 F       1  UNL1       -0.1659
     19 C           6.2868   32.8659    7.8745 C.3     1  UNL1        0.0970
     20 C           6.7919   31.6669    8.6969 C.3     1  UNL1        0.0391
     21 C           8.1654   31.8740    9.3559 C.3     1  UNL1        0.0739
     22 N          11.7115   30.6340    9.5811 N.3     1  UNL1       -0.2682
     23 C          11.2086   31.9260   10.0934 C.3     1  UNL1        0.0897
     24 C          10.4047   32.7763    9.0731 C.3     1  UNL1        0.0897
     25 N           9.2842   32.0622    8.4074 N.3     1  UNL1       -0.2703
     26 C           9.8187   30.7891    7.8757 C.3     1  UNL1        0.0897
     27 C          10.5970   29.9287    8.9038 C.3     1  UNL1        0.0897
     28 C          12.8659   30.7675    8.6724 C.3     1  UNL1        0.1043
     29 O          13.6695   28.4855    8.5673 O.3     1  UNL1       -0.3805
     30 C          14.0296   29.8075    8.9640 C.3     1  UNL1        0.1544
     31 H          14.4553   27.9292    8.7061 H       1  UNL1        0.2105
@<TRIPOS>BOND
     1    29    30    1
     2    29    31    1
     3    30    28    1
     4    28    22    1
     5    22    23    1
     6    22    27    1
     7    23    24    1
     8    24    25    1
     9    25    21    1
    10    25    26    1
    11    21    20    1
    12    20    19    1
    13    19     1    1
    14     1     2    1
    15     1    14    1
    16     2     3   ar
    17     2     7   ar
    18     3     4   ar
    19     4     5   ar
    20     5     6   ar
    21     6     7   ar
    22     7     8    1
    23     8     9    1
    24     9    10   ar
    25     9    14   ar
    26    10    11   ar
    27    11    12   ar
    28    12    15    1
    29    12    13   ar
    30    15    16    1
    31    15    17    1
    32    15    18    1
    33    13    14   ar
    34    26    27    1
#	Name:			CHEMBL727
#	Creating user name:	trannguyen
#	Creation time:		Tue Feb  8 18:26:14 2022


#	Modifying user name:	trannguyen
#	Modification time:	Tue Feb  8 18:26:14 2022

@<TRIPOS>MOLECULE
CHEMBL727
 15 16 0 0 0
SMALL
GASTEIGER

@<TRIPOS>ATOM
      1 N          -0.6457   28.4773   10.2981 N.pl3   1  UNL1       -0.3289
      2 C           0.6098   28.9842   10.2322 C.ar    1  UNL1        0.1930
      3 N           1.6429   28.1925   10.3536 N.ar    1  UNL1       -0.1967
      4 C           2.8264   28.8382   10.2347 C.ar    1  UNL1        0.1643
      5 N           4.0583   28.2596   10.2881 N.ar    1  UNL1       -0.3202
      6 H           4.2442   27.2784   10.4313 H       1  UNL1        0.1689
      7 C           4.9801   29.2565   10.0911 C.ar    1  UNL1        0.1762
      8 N           4.4096   30.4334    9.9290 N.ar    1  UNL1       -0.2205
      9 C           3.0663   30.1747   10.0160 C.ar    1  UNL1        0.1391
     10 C           1.9093   31.0249    9.9042 C.ar    1  UNL1        0.1160
     11 S           2.0315   32.6537    9.6404 S.2     1  UNL1       -0.0303
     12 N           0.7057   30.3511   10.0325 N.ar    1  UNL1       -0.3203
     13 H          -0.1322   30.8998    9.9293 H       1  UNL1        0.1691
     14 H          -0.6833   27.5351   10.6729 H       1  UNL1        0.1451
     15 H          -1.4025   29.0763   10.5951 H       1  UNL1        0.1451
@<TRIPOS>BOND
     1     1     2    1
     2     1    14    1
     3     1    15    1
     4     2     3   ar
     5     2    12   ar
     6     3     4   ar
     7     4     5   ar
     8     4     9   ar
     9     5     6    1
    10     5     7   ar
    11     7     8   ar
    12     8     9   ar
    13     9    10   ar
    14    10    11    2
    15    10    12   ar
    16    12    13    1
#	Name:			CHEMBL728
#	Creating user name:	trannguyen
#	Creation time:		Tue Feb  8 18:26:14 2022


#	Modifying user name:	trannguyen
#	Modification time:	Tue Feb  8 18:26:14 2022

@<TRIPOS>MOLECULE
CHEMBL728
 25 28 0 0 0
SMALL
GASTEIGER

@<TRIPOS>ATOM
      1 N           3.6328   31.5731    9.0500 N.pl3   1  UNL1       -0.2860
      2 C           5.0309   31.8798    9.0658 C.ar    1  UNL1        0.0576
      3 C           5.5612   33.0390    8.4462 C.ar    1  UNL1        0.0153
      4 C           6.9172   33.3885    8.5228 C.ar    1  UNL1        0.0013
      5 C           7.8015   32.5835    9.2082 C.ar    1  UNL1        0.0006
      6 C           7.3324   31.4138    9.7957 C.ar    1  UNL1        0.0077
      7 C           5.9679   31.0560    9.7187 C.ar    1  UNL1        0.0431
      8 S           5.5659   29.4991   10.4699 S.3     1  UNL1       -0.0844
      9 C           3.8141   29.3856   10.2152 C.ar    1  UNL1        0.0431
     10 C           3.2252   28.1933   10.6954 C.ar    1  UNL1        0.0086
     11 C           1.8523   27.9907   10.6180 C.ar    1  UNL1        0.0120
     12 C           1.0651   28.9868   10.0798 C.ar    1  UNL1        0.0589
     13 CL         -0.6444   28.7842   10.0110 Cl      1  UNL1       -0.0822
     14 C           1.6416   30.1644    9.5816 C.ar    1  UNL1        0.0267
     15 C           3.0389   30.3941    9.6059 C.ar    1  UNL1        0.0585
     16 C           2.7489   32.4934    8.2855 C.3     1  UNL1        0.0970
     17 C           2.5138   31.9819    6.8550 C.3     1  UNL1        0.0391
     18 C           3.1416   32.9195    5.8094 C.3     1  UNL1        0.0739
     19 C           6.9774   32.1469    3.2281 C.3     1  UNL1        0.0897
     20 N           5.5208   32.1204    3.1244 N.3     1  UNL1       -0.2691
     21 C           4.9522   33.4667    3.3309 C.3     1  UNL1        0.0897
     22 C           3.4056   33.4748    3.4179 C.3     1  UNL1        0.0897
     23 N           2.8443   32.5347    4.4147 N.3     1  UNL1       -0.2703
     24 C           3.3971   31.1968    4.0824 C.3     1  UNL1        0.0897
     25 C           4.9435   31.1405    4.0616 C.3     1  UNL1        0.0897
@<TRIPOS>BOND
     1    19    20    1
     2    20    21    1
     3    20    25    1
     4    21    22    1
     5    22    23    1
     6    23    18    1
     7    23    24    1
     8    18    17    1
     9    17    16    1
    10    16     1    1
    11     1     2    1
    12     1    15    1
    13     2     3   ar
    14     2     7   ar
    15     3     4   ar
    16     4     5   ar
    17     5     6   ar
    18     6     7   ar
    19     7     8    1
    20     8     9    1
    21     9    10   ar
    22     9    15   ar
    23    10    11   ar
    24    11    12   ar
    25    12    13    1
    26    12    14   ar
    27    14    15   ar
    28    24    25    1
#	Name:			CHEMBL72
#	Creating user name:	trannguyen
#	Creation time:		Tue Feb  8 18:26:14 2022


#	Modifying user name:	trannguyen
#	Modification time:	Tue Feb  8 18:26:14 2022

@<TRIPOS>MOLECULE
CHEMBL72
 21 23 0 0 0
SMALL
GASTEIGER

@<TRIPOS>ATOM
      1 N           2.8017   31.7354    8.1313 N.pl3   1  UNL1       -0.2873
      2 C           3.8205   31.0195    8.8176 C.ar    1  UNL1        0.0475
      3 C           3.5377   29.8070    9.4710 C.ar    1  UNL1        0.0145
      4 C           4.4632   29.2311   10.3445 C.ar    1  UNL1        0.0013
      5 C           5.6945   29.8389   10.5606 C.ar    1  UNL1       -0.0002
      6 C           6.0289   30.9909    9.8521 C.ar    1  UNL1       -0.0030
      7 C           5.1123   31.5556    8.9522 C.ar    1  UNL1       -0.0082
      8 C           5.5294   32.7371    8.1173 C.3     1  UNL1        0.0323
      9 C           5.4356   32.3586    6.6443 C.3     1  UNL1        0.0323
     10 C           4.0404   32.2961    6.0411 C.ar    1  UNL1       -0.0082
     11 C           4.0093   32.5217    4.6342 C.ar    1  UNL1       -0.0030
     12 C           2.8237   32.5152    3.9220 C.ar    1  UNL1       -0.0002
     13 C           1.6416   32.2596    4.5912 C.ar    1  UNL1        0.0013
     14 C           1.6543   32.0076    5.9716 C.ar    1  UNL1        0.0145
     15 C           2.8243   32.0391    6.7504 C.ar    1  UNL1        0.0475
     16 C           1.5633   31.9987    8.8963 C.3     1  UNL1        0.0969
     17 C           1.7771   32.6650   10.2730 C.3     1  UNL1        0.0389
     18 C           1.3240   34.1198   10.4170 C.3     1  UNL1        0.0704
     19 C          -0.5536   35.6737   10.5843 C.3     1  UNL1        0.0859
     20 N          -0.1040   34.3515   10.1992 N.3     1  UNL1       -0.2963
     21 H          -0.3206   34.2074    9.2158 H       1  UNL1        0.1233
@<TRIPOS>BOND
     1    19    20    1
     2    20    18    1
     3    20    21    1
     4    18    17    1
     5    17    16    1
     6    16     1    1
     7     1     2    1
     8     1    15    1
     9     2     3   ar
    10     2     7   ar
    11     3     4   ar
    12     4     5   ar
    13     5     6   ar
    14     6     7   ar
    15     7     8    1
    16     8     9    1
    17     9    10    1
    18    10    11   ar
    19    10    15   ar
    20    11    12   ar
    21    12    13   ar
    22    13    14   ar
    23    14    15   ar
#	Name:			CHEMBL741
#	Creating user name:	trannguyen
#	Creation time:		Tue Feb  8 18:26:14 2022


#	Modifying user name:	trannguyen
#	Modification time:	Tue Feb  8 18:26:14 2022

@<TRIPOS>MOLECULE
CHEMBL741
 20 21 0 0 0
SMALL
GASTEIGER

@<TRIPOS>ATOM
      1 N           2.9893   34.7775    5.2120 N.pl3   1  UNL1       -0.3262
      2 C           3.0960   33.7710    6.1544 C.ar    1  UNL1        0.2341
      3 N           2.8668   32.4976    5.7769 N.ar    1  UNL1       -0.1128
      4 N           2.9416   31.4964    6.6952 N.ar    1  UNL1       -0.1424
      5 C           3.2589   31.8104    7.9678 C.ar    1  UNL1        0.1348
      6 C           3.4790   33.1457    8.3099 C.ar    1  UNL1        0.1479
      7 N           3.7640   33.5571    9.6196 N.pl3   1  UNL1       -0.3413
      8 N           3.3805   34.1385    7.4093 N.ar    1  UNL1       -0.1967
      9 H           2.3910   34.4883    4.4503 H       1  UNL1        0.1452
     10 H           2.7674   35.6523    5.6672 H       1  UNL1        0.1452
     11 H           4.5747   33.0718    9.9927 H       1  UNL1        0.1438
     12 H           3.9206   34.5624    9.5901 H       1  UNL1        0.1438
     13 C           3.3090   30.6886    8.9072 C.ar    1  UNL1        0.0336
     14 C           4.5656   30.1648    9.2718 C.ar    1  UNL1        0.0025
     15 C           4.6741   29.0994   10.1651 C.ar    1  UNL1        0.0010
     16 C           3.5257   28.5425   10.7197 C.ar    1  UNL1        0.0122
     17 C           2.2676   29.0477   10.3807 C.ar    1  UNL1        0.0682
     18 CL          0.8923   28.2989   11.1177 Cl      1  UNL1       -0.0814
     19 C           2.1516   30.1168    9.4756 C.ar    1  UNL1        0.0698
     20 CL          0.5827   30.7380    9.0520 Cl      1  UNL1       -0.0813
@<TRIPOS>BOND
     1     1     2    1
     2     1     9    1
     3     1    10    1
     4     2     3   ar
     5     2     8   ar
     6     3     4   ar
     7     4     5   ar
     8     5    13    1
     9     5     6   ar
    10    13    14   ar
    11    13    19   ar
    12    14    15   ar
    13    15    16   ar
    14    16    17   ar
    15    17    18    1
    16    17    19   ar
    17    19    20    1
    18     6     7    1
    19     6     8   ar
    20     7    11    1
    21     7    12    1
#	Name:			CHEMBL742
#	Creating user name:	trannguyen
#	Creation time:		Tue Feb  8 18:26:14 2022


#	Modifying user name:	trannguyen
#	Modification time:	Tue Feb  8 18:26:14 2022

@<TRIPOS>MOLECULE
CHEMBL742
 17 18 0 0 0
SMALL
GASTEIGER

@<TRIPOS>ATOM
      1 C           2.5841   31.8826    9.0821 C.3     1  UNL1        0.1140
      2 C           3.8874   32.7145    8.8421 C.3     1  UNL1        0.0259
      3 C           3.6401   34.2086    8.5776 C.3     1  UNL1        0.0026
      4 C           2.8521   34.8635    9.7101 C.3     1  UNL1        0.0079
      5 C           1.5698   34.1058   10.0120 C.3     1  UNL1        0.0662
      6 C           1.9187   32.6530   10.2755 C.2     1  UNL1        0.1670
      7 O           1.7587   32.1785   11.4013 O.2     1  UNL1       -0.2944
      8 C           2.8260   30.4001    9.4540 C.ar    1  UNL1        0.0077
      9 C           4.1363   29.9022    9.6305 C.ar    1  UNL1       -0.0018
     10 C           4.3795   28.5703    9.9833 C.ar    1  UNL1       -0.0002
     11 C           3.3205   27.6934   10.1722 C.ar    1  UNL1        0.0008
     12 C           2.0175   28.1444    9.9899 C.ar    1  UNL1        0.0111
     13 C           1.7680   29.4754    9.6257 C.ar    1  UNL1        0.0553
     14 CL          0.1041   29.8827    9.3523 Cl      1  UNL1       -0.0825
     15 C           2.2193   31.4782    6.6524 C.3     1  UNL1        0.0864
     16 N           1.6803   32.0056    7.9002 N.3     1  UNL1       -0.2897
     17 H           0.8181   31.4965    8.1161 H       1  UNL1        0.1239
@<TRIPOS>BOND
     1    15    16    1
     2    16     1    1
     3    16    17    1
     4     1     8    1
     5     1     2    1
     6     1     6    1
     7     8     9   ar
     8     8    13   ar
     9     9    10   ar
    10    10    11   ar
    11    11    12   ar
    12    12    13   ar
    13    13    14    1
    14     2     3    1
    15     3     4    1
    16     4     5    1
    17     5     6    1
    18     6     7    2
#	Name:			CHEMBL744
#	Creating user name:	trannguyen
#	Creation time:		Tue Feb  8 18:26:14 2022


#	Modifying user name:	trannguyen
#	Modification time:	Tue Feb  8 18:26:14 2022

@<TRIPOS>MOLECULE
CHEMBL744
 17 18 0 0 0
SMALL
GASTEIGER

@<TRIPOS>ATOM
      1 N           1.9412   27.7141   12.0904 N.pl3   1  UNL1       -0.3375
      2 C           2.0675   28.5869   11.0833 C.ar    1  UNL1        0.1567
      3 N           3.1743   29.2536   10.8539 N.ar    1  UNL1       -0.2245
      4 C           3.0174   30.0655    9.7463 C.ar    1  UNL1        0.0894
      5 C           4.0028   30.9053    9.1957 C.ar    1  UNL1        0.0228
      6 C           3.6974   31.6841    8.0751 C.ar    1  UNL1        0.0388
      7 C           2.4264   31.6575    7.4991 C.ar    1  UNL1        0.1474
      8 C           1.4451   30.7986    8.0047 C.ar    1  UNL1        0.0452
      9 C           1.7615   30.0229    9.1396 C.ar    1  UNL1        0.0527
     10 S           0.7710   28.9139   10.0107 S.2     1  UNL1       -0.0519
     11 H           2.6455   27.7649   12.8182 H       1  UNL1        0.1442
     12 H           1.0102   27.4829   12.4179 H       1  UNL1        0.1442
     13 O           2.2841   32.5087    6.4419 O.3     1  UNL1       -0.4044
     14 C           2.2425   31.9744    5.1285 C.3     1  UNL1        0.5753
     15 F           2.5459   30.6598    5.0852 F       1  UNL1       -0.1328
     16 F           0.9864   32.1223    4.6500 F       1  UNL1       -0.1328
     17 F           3.0854   32.6546    4.3241 F       1  UNL1       -0.1328
@<TRIPOS>BOND
     1     1     2    1
     2     1    11    1
     3     1    12    1
     4     2     3   ar
     5     2    10   ar
     6     3     4   ar
     7     4     5   ar
     8     4     9   ar
     9     5     6   ar
    10     6     7   ar
    11     7    13    1
    12     7     8   ar
    13    13    14    1
    14    14    15    1
    15    14    16    1
    16    14    17    1
    17     8     9   ar
    18     9    10   ar
#	Name:			CHEMBL74667
#	Creating user name:	trannguyen
#	Creation time:		Tue Feb  8 18:26:14 2022


#	Modifying user name:	trannguyen
#	Modification time:	Tue Feb  8 18:26:14 2022

@<TRIPOS>MOLECULE
CHEMBL74667
 26 27 0 0 0
SMALL
GASTEIGER

@<TRIPOS>ATOM
      1 C           4.3148   32.9510    4.1195 C.ar    1  UNL1       -0.0222
      2 C           3.1104   33.0294    3.4097 C.ar    1  UNL1       -0.0043
      3 C           1.8845   32.8194    4.0491 C.ar    1  UNL1       -0.0003
      4 C           1.8744   32.3175    5.3301 C.ar    1  UNL1       -0.0000
      5 C           3.0892   32.0664    5.9671 C.ar    1  UNL1       -0.0006
      6 C           4.2962   32.4251    5.4019 C.ar    1  UNL1       -0.0043
      7 C           3.1654   31.4177    7.2891 C.2     1  UNL1       -0.0046
      8 C           2.0672   31.1766    8.0814 C.2     1  UNL1       -0.0268
      9 C           2.0450   30.4624    9.4000 C.3     1  UNL1        0.0188
     10 C           1.9315   31.4411   10.5912 C.3     1  UNL1        0.0044
     11 C           3.3591   29.6406    9.5038 C.3     1  UNL1        0.0065
     12 C           3.3673   28.6689   10.6797 C.3     1  UNL1        0.0296
     13 C           2.1545   27.7415   10.6476 C.3     1  UNL1        0.1105
     14 O           2.1499   26.9292   11.8154 O.3     1  UNL1       -0.3845
     15 C           0.8388   28.5125   10.5596 C.3     1  UNL1        0.0296
     16 C           0.8349   29.4894    9.3861 C.3     1  UNL1        0.0065
     17 H           2.0917   27.5169   12.5882 H       1  UNL1        0.2103
     18 C           5.6222   33.4386    3.5476 C.3     1  UNL1        0.0264
     19 C           6.7103   33.8460    4.5677 C.3     1  UNL1        0.0048
     20 C           7.8412   32.8611    4.9226 C.3     1  UNL1        0.0027
     21 C           7.5287   31.6710    5.8679 C.3     1  UNL1        0.0269
     22 C           8.9177   30.6032    7.7435 C.3     1  UNL1        0.0293
     23 C           8.0072   31.7466    7.3296 C.3     1  UNL1        0.0885
     24 C           6.8168   31.7496    8.2858 C.3     1  UNL1        0.0293
     25 O           8.8700   32.8655    7.4635 O.3     1  UNL1       -0.3867
     26 H           8.9735   33.0953    8.4010 H       1  UNL1        0.2102
@<TRIPOS>BOND
     1    22    23    1
     2    23    24    1
     3    23    25    1
     4    23    21    1
     5    25    26    1
     6    21    20    1
     7    20    19    1
     8    19    18    1
     9    18     1    1
    10     1     2   ar
    11     1     6   ar
    12     2     3   ar
    13     3     4   ar
    14     4     5   ar
    15     5     7    1
    16     5     6   ar
    17     7     8    2
    18     9    11    1
    19     9    16    1
    20     9    10    1
    21     9     8    1
    22    11    12    1
    23    12    13    1
    24    13    15    1
    25    13    14    1
    26    14    17    1
    27    15    16    1
#	Name:			CHEMBL748
#	Creating user name:	trannguyen
#	Creation time:		Tue Feb  8 18:26:14 2022


#	Modifying user name:	trannguyen
#	Modification time:	Tue Feb  8 18:26:14 2022

@<TRIPOS>MOLECULE
CHEMBL748
 11 11 0 0 0
SMALL
GASTEIGER

@<TRIPOS>ATOM
      1 C           1.5398   30.0377    9.1088 C.3     1  UNL1        0.1125
      2 N           2.9687   30.2238    9.4240 N.pl3   1  UNL1       -0.3005
      3 C           3.5677   31.3708    9.0245 C.3     1  UNL1        0.1175
      4 C           4.9347   31.5680    9.1910 C.2     1  UNL1       -0.0047
      5 C           5.7077   30.5603    9.7470 C.2     1  UNL1       -0.0016
      6 C           5.0940   29.3757   10.1309 C.2     1  UNL1        0.0159
      7 C           3.7141   29.2272    9.9643 C.2     1  UNL1        0.0708
      8 C           3.0965   27.9865   10.4590 C.2     1  UNL1        0.1543
      9 N           2.5693   27.8925   11.6403 N.2     1  UNL1       -0.0834
     10 O           2.1125   26.5818   11.8189 O.2     1  UNL1       -0.4087
     11 H           1.6713   26.6148   12.6890 H       1  UNL1        0.3278
@<TRIPOS>BOND
     1     1     2    1
     2     2     3    1
     3     2     7    1
     4     3     4    1
     5     4     5    2
     6     5     6    1
     7     6     7    2
     8     7     8    1
     9     8     9    2
    10     9    10    1
    11    10    11    1
#	Name:			CHEMBL75435
#	Creating user name:	trannguyen
#	Creation time:		Tue Feb  8 18:26:14 2022


#	Modifying user name:	trannguyen
#	Modification time:	Tue Feb  8 18:26:14 2022

@<TRIPOS>MOLECULE
CHEMBL75435
 20 21 0 0 0
SMALL
GASTEIGER

@<TRIPOS>ATOM
      1 C           2.9729   29.4530    9.7125 C.ar    1  UNL1       -0.0119
      2 C           4.2525   29.2579   10.2543 C.ar    1  UNL1       -0.0037
      3 C           5.2985   30.1253    9.9399 C.ar    1  UNL1       -0.0002
      4 C           5.0815   31.2022    9.0815 C.ar    1  UNL1        0.0032
      5 C           3.8152   31.4173    8.5278 C.ar    1  UNL1        0.0387
      6 C           2.7734   30.5267    8.8229 C.ar    1  UNL1       -0.0006
      7 C           0.4537   29.2022    9.9894 C.3     1  UNL1        0.0164
      8 C           1.8182   28.5015   10.0049 C.3     1  UNL1        0.1211
      9 C           1.9559   27.6970   11.2951 C.2     1  UNL1        0.3174
     10 O           1.8515   28.2111   12.4050 O.2     1  UNL1       -0.2499
     11 O           2.1861   26.3727   11.1710 O.3     1  UNL1       -0.4800
     12 H           2.2600   26.0359   10.2572 H       1  UNL1        0.2951
     13 C           3.6370   32.5600    7.5904 C.2     1  UNL1        0.1955
     14 O           3.8011   33.7007    8.0173 O.2     1  UNL1       -0.2866
     15 C           3.2735   32.3639    6.1600 C.ar    1  UNL1        0.0390
     16 C           4.2419   32.1322    5.1753 C.ar    1  UNL1        0.0032
     17 C           3.8600   31.9564    3.8435 C.ar    1  UNL1        0.0001
     18 C           2.5108   31.9831    3.4932 C.ar    1  UNL1        0.0000
     19 C           1.5391   32.1799    4.4734 C.ar    1  UNL1        0.0001
     20 C           1.9178   32.3674    5.8049 C.ar    1  UNL1        0.0032
@<TRIPOS>BOND
     1     8     9    1
     2     8     1    1
     3     8     7    1
     4     9    10    2
     5     9    11    1
     6    11    12    1
     7     1     2   ar
     8     1     6   ar
     9     2     3   ar
    10     3     4   ar
    11     4     5   ar
    12     5    13    1
    13     5     6   ar
    14    13    14    2
    15    13    15    1
    16    15    16   ar
    17    15    20   ar
    18    16    17   ar
    19    17    18   ar
    20    18    19   ar
    21    19    20   ar
#	Name:			CHEMBL7568
#	Creating user name:	trannguyen
#	Creation time:		Tue Feb  8 18:26:14 2022


#	Modifying user name:	trannguyen
#	Modification time:	Tue Feb  8 18:26:14 2022

@<TRIPOS>MOLECULE
CHEMBL7568
 29 31 0 0 0
SMALL
GASTEIGER

@<TRIPOS>ATOM
      1 C           3.7359   33.3726    9.2221 C.ar    1  UNL1        0.0475
      2 C           3.5408   31.9640    9.5054 C.ar    1  UNL1        0.0309
      3 C           4.4996   30.9127    9.3980 C.ar    1  UNL1        0.0036
      4 C           4.2030   29.5718    9.6348 C.ar    1  UNL1        0.0115
      5 C           2.9210   29.2257    9.9797 C.ar    1  UNL1        0.0592
      6 CL          2.5216   27.5736   10.2377 Cl      1  UNL1       -0.0822
      7 C           1.9660   30.2176   10.1476 C.ar    1  UNL1        0.0305
      8 C           2.2692   31.5540    9.9515 C.ar    1  UNL1        0.0833
      9 N           1.2835   32.4014   10.2465 N.ar    1  UNL1       -0.2452
     10 C           1.4822   33.7086   10.1329 C.ar    1  UNL1        0.0826
     11 C           0.4586   34.5071   10.6160 C.ar    1  UNL1        0.0222
     12 C           0.5274   35.8951   10.5719 C.ar    1  UNL1        0.0384
     13 C           1.6233   36.4958    9.9713 C.ar    1  UNL1        0.1389
     14 C           2.6516   35.6974    9.4513 C.ar    1  UNL1        0.0396
     15 C           2.6478   34.2728    9.5764 C.ar    1  UNL1        0.0338
     16 N           4.9410   33.9470    8.7453 N.pl3   1  UNL1       -0.3340
     17 H           4.8435   34.4135    7.8532 H       1  UNL1        0.1468
     18 C           6.3296   33.5682    9.0512 C.3     1  UNL1        0.0691
     19 C           6.9982   34.7030    9.8623 C.3     1  UNL1        0.0212
     20 C           7.1758   33.3221    7.7822 C.3     1  UNL1        0.0209
     21 C           6.7749   32.0906    6.9499 C.3     1  UNL1        0.0190
     22 C           6.3004   32.5298    5.5459 C.3     1  UNL1        0.0721
     23 N           4.9917   33.2035    5.4784 N.3     1  UNL1       -0.2727
     24 C           5.7955   33.5789    3.0975 C.3     1  UNL1        0.0188
     25 C           4.7899   33.9126    4.1967 C.3     1  UNL1        0.0721
     26 C           3.8327   32.3342    5.7609 C.3     1  UNL1        0.0721
     27 C           3.4039   31.3664    4.6571 C.3     1  UNL1        0.0188
     28 O           1.5726   37.8640    9.9306 O.3     1  UNL1       -0.4714
     29 C           0.8426   38.4794   10.9829 C.3     1  UNL1        0.2525
@<TRIPOS>BOND
     1    24    25    1
     2    25    23    1
     3    23    26    1
     4    23    22    1
     5    26    27    1
     6    22    21    1
     7    21    20    1
     8    20    18    1
     9    18    19    1
    10    18    16    1
    11    16     1    1
    12    16    17    1
    13     1     2   ar
    14     1    15   ar
    15     2     3   ar
    16     2     8   ar
    17     3     4   ar
    18     4     5   ar
    19     5     6    1
    20     5     7   ar
    21     7     8   ar
    22     8     9   ar
    23     9    10   ar
    24    10    11   ar
    25    10    15   ar
    26    11    12   ar
    27    12    13   ar
    28    13    28    1
    29    13    14   ar
    30    28    29    1
    31    14    15   ar
#	Name:			CHEMBL757
#	Creating user name:	trannguyen
#	Creation time:		Tue Feb  8 18:26:14 2022


#	Modifying user name:	trannguyen
#	Modification time:	Tue Feb  8 18:26:14 2022

@<TRIPOS>MOLECULE
CHEMBL757
 21 24 0 0 0
SMALL
GASTEIGER

@<TRIPOS>ATOM
      1 C           5.8798   31.8155    9.7834 C.3     1  UNL1        0.0024
      2 C           7.3226   32.3064    9.8099 C.3     1  UNL1        0.0247
      3 C           8.2349   31.1197    9.3024 C.3     1  UNL1        0.0023
      4 C           8.3538   30.9980    7.7401 C.3     1  UNL1        0.0004
      5 C           8.4981   32.3303    6.9231 C.3     1  UNL1        0.0037
      6 C           8.1890   32.2290    5.3969 C.3     1  UNL1        0.0188
      7 C           8.2498   33.5398    4.5697 C.3     1  UNL1        0.0121
      8 C           8.2272   33.1846    3.0720 C.3     1  UNL1        0.0695
      9 C           7.3129   31.9937    2.7646 C.2     1  UNL1        0.1725
     10 O           7.2353   31.4994    1.6435 O.2     1  UNL1       -0.2914
     11 C           6.4052   31.5219    3.8568 C.2     1  UNL1        0.0290
     12 C           6.7706   31.7869    5.1150 C.2     1  UNL1       -0.0417
     13 C           5.7687   32.0111    6.2122 C.3     1  UNL1        0.0221
     14 C           6.1315   33.2680    7.0533 C.3     1  UNL1        0.0044
     15 C           7.6257   33.4222    7.5080 C.3     1  UNL1        0.0007
     16 C           7.7869   33.5405    9.0190 C.3     1  UNL1        0.0023
     17 C           9.2206   33.7608    9.6706 C.3     1  UNL1        0.0026
     18 C           9.0602   33.2754   11.1492 C.3     1  UNL1        0.0292
     19 C           7.5765   32.9708   11.2000 C.3     1  UNL1        0.1104
     20 O           7.0668   32.3059   12.3292 O.3     1  UNL1       -0.3845
     21 H           6.1621   32.6090   12.4814 H       1  UNL1        0.2103
@<TRIPOS>BOND
     1     2     3    1
     2     2    16    1
     3     2    19    1
     4     2     1    1
     5     3     4    1
     6     4     5    1
     7     5     6    1
     8     5    15    1
     9     6     7    1
    10     6    12    1
    11     7     8    1
    12     8     9    1
    13     9    11    1
    14     9    10    2
    15    11    12    2
    16    12    13    1
    17    13    14    1
    18    14    15    1
    19    15    16    1
    20    16    17    1
    21    17    18    1
    22    18    19    1
    23    19    20    1
    24    20    21    1
#	Name:			CHEMBL75880
#	Creating user name:	trannguyen
#	Creation time:		Tue Feb  8 18:26:14 2022


#	Modifying user name:	trannguyen
#	Modification time:	Tue Feb  8 18:26:14 2022

@<TRIPOS>MOLECULE
CHEMBL75880
 21 23 0 0 0
SMALL
GASTEIGER

@<TRIPOS>ATOM
      1 C           4.4739   31.2922    8.2885 C.3     1  UNL1        0.0013
      2 C           2.7518   28.0334   10.2936 C.3     1  UNL1        0.0000
      3 C           1.9202   29.1011    9.6157 C.3     1  UNL1        0.0000
      4 C           2.4489   30.5083    9.8539 C.3     1  UNL1        0.0000
      5 C           3.9640   30.7577    9.6896 C.3     1  UNL1        0.0000
      6 C           4.7696   29.5555   10.2445 C.3     1  UNL1        0.0000
      7 C           4.2184   28.1667    9.9215 C.3     1  UNL1        0.0000
      8 C           5.6780   32.3193    8.3517 C.3     1  UNL1        0.0000
      9 C           5.9817   33.0082    9.6954 C.3     1  UNL1        0.0000
     10 C           7.0368   32.3319   10.5799 C.3     1  UNL1        0.0000
     11 C           8.3131   31.9986    9.8294 C.3     1  UNL1        0.0000
     12 C           8.0213   31.1674    8.5901 C.3     1  UNL1        0.0000
     13 C           6.9824   31.8179    7.6793 C.3     1  UNL1        0.0000
     14 C           3.2828   31.7597    7.3984 C.3     1  UNL1        0.0157
     15 C           3.5016   32.7998    6.2561 C.3     1  UNL1        0.0540
     16 C           4.3376   32.3696    5.0538 C.3     1  UNL1        0.0158
     17 C           3.6565   31.2993    4.1986 C.3     1  UNL1        0.0028
     18 C           2.2411   31.7223    3.8102 C.3     1  UNL1        0.0171
     19 C           1.4489   32.2798    4.9820 C.3     1  UNL1        0.0685
     20 N           2.1940   33.2834    5.7541 N.3     1  UNL1       -0.2985
     21 H           1.6224   33.5945    6.5320 H       1  UNL1        0.1232
@<TRIPOS>BOND
     1     2     3    1
     2     2     7    1
     3     3     4    1
     4     4     5    1
     5     5     1    1
     6     5     6    1
     7     1    14    1
     8     1     8    1
     9    14    15    1
    10    15    16    1
    11    15    20    1
    12    16    17    1
    13    17    18    1
    14    18    19    1
    15    19    20    1
    16    20    21    1
    17     8     9    1
    18     8    13    1
    19     9    10    1
    20    10    11    1
    21    11    12    1
    22    12    13    1
    23     6     7    1
#	Name:			CHEMBL75
#	Creating user name:	trannguyen
#	Creation time:		Tue Feb  8 18:26:14 2022


#	Modifying user name:	trannguyen
#	Modification time:	Tue Feb  8 18:26:14 2022

@<TRIPOS>MOLECULE
CHEMBL75
 36 40 0 0 0
SMALL
GASTEIGER

@<TRIPOS>ATOM
      1 C           6.0801   32.9009    3.2970 C.3     1  UNL1        0.1909
      2 C           6.9684   31.7482    3.6723 C.3     1  UNL1        0.1783
      3 O           6.5523   31.4370    4.9933 O.3     1  UNL1       -0.3267
      4 C           6.0705   32.6636    5.5793 C.3     1  UNL1        0.2296
      5 O           5.9036   33.6247    4.5107 O.3     1  UNL1       -0.3255
      6 C           4.7268   32.4139    6.2764 C.ar    1  UNL1        0.0409
      7 C           4.5801   32.8196    7.6243 C.ar    1  UNL1        0.0022
      8 C           3.3906   32.6181    8.3300 C.ar    1  UNL1        0.0113
      9 C           2.3190   31.9949    7.7070 C.ar    1  UNL1        0.0585
     10 CL          0.8435   31.7651    8.5596 Cl      1  UNL1       -0.0822
     11 C           2.4363   31.5531    6.3952 C.ar    1  UNL1        0.0226
     12 C           3.6286   31.7554    5.6838 C.ar    1  UNL1        0.0591
     13 CL          3.6415   31.1181    4.0750 Cl      1  UNL1       -0.0824
     14 C           6.6507   33.7704    2.1881 C.3     1  UNL1        0.2374
     15 O           7.6661   33.0890    1.4251 O.3     1  UNL1       -0.4727
     16 C           7.6029   33.9220   -2.7072 C.ar    1  UNL1        0.0481
     17 C           7.4544   34.9419   -1.7723 C.ar    1  UNL1        0.0176
     18 C           7.4717   34.6807   -0.4058 C.ar    1  UNL1        0.0382
     19 C           7.6479   33.3886    0.0831 C.ar    1  UNL1        0.1388
     20 C           7.7801   32.3445   -0.8328 C.ar    1  UNL1        0.0382
     21 C           7.7663   32.6162   -2.2134 C.ar    1  UNL1        0.0176
     22 C           8.5134   36.4597   -8.5471 C.3     1  UNL1        0.0948
     23 C           8.2294   35.0262   -8.1837 C.2     1  UNL1        0.2262
     24 O           8.2597   34.1324   -9.0503 O.2     1  UNL1       -0.2749
     25 N           7.9923   34.7669   -6.8492 N.am    1  UNL1       -0.2760
     26 C           7.7033   33.3918   -6.4104 C.3     1  UNL1        0.1148
     27 C           8.1971   33.1350   -4.9761 C.3     1  UNL1        0.1123
     28 N           7.6340   34.1681   -4.0765 N.pl3   1  UNL1       -0.3041
     29 C           8.0546   35.5286   -4.4607 C.3     1  UNL1        0.1123
     30 C           7.5810   35.8150   -5.8925 C.3     1  UNL1        0.1148
     31 C           7.1566   33.2093    6.5362 C.3     1  UNL1        0.1682
     32 N           8.1699   32.2437    6.9159 N.ar    1  UNL1       -0.3025
     33 C           7.9960   31.1705    7.7458 C.ar    1  UNL1        0.0982
     34 C           9.2349   30.5800    7.8280 C.ar    1  UNL1        0.1193
     35 N          10.1406   31.2410    7.0402 N.ar    1  UNL1       -0.2223
     36 C           9.4710   32.2338    6.4972 C.ar    1  UNL1        0.1788
@<TRIPOS>BOND
     1    22    23    1
     2    23    24    2
     3    23    25   am
     4    25    26    1
     5    25    30    1
     6    26    27    1
     7    27    28    1
     8    28    16    1
     9    28    29    1
    10    16    17   ar
    11    16    21   ar
    12    17    18   ar
    13    18    19   ar
    14    19    15    1
    15    19    20   ar
    16    15    14    1
    17    14     1    1
    18     1     2    1
    19     1     5    1
    20     2     3    1
    21     3     4    1
    22     4    31    1
    23     4     6    1
    24     4     5    1
    25    31    32    1
    26    32    33   ar
    27    32    36   ar
    28    33    34   ar
    29    34    35   ar
    30    35    36   ar
    31     6     7   ar
    32     6    12   ar
    33     7     8   ar
    34     8     9   ar
    35     9    10    1
    36     9    11   ar
    37    11    12   ar
    38    12    13    1
    39    20    21   ar
    40    29    30    1
#	Name:			CHEMBL762
#	Creating user name:	trannguyen
#	Creation time:		Tue Feb  8 18:26:14 2022


#	Modifying user name:	trannguyen
#	Modification time:	Tue Feb  8 18:26:14 2022

@<TRIPOS>MOLECULE
CHEMBL762
 21 22 0 0 0
SMALL
GASTEIGER

@<TRIPOS>ATOM
      1 C           5.4979   31.9590    8.9507 C.3     1  UNL1        0.0307
      2 C           4.2702   31.8822    8.0767 C.ar    1  UNL1       -0.0257
      3 C           4.4321   32.0770    6.6914 C.ar    1  UNL1       -0.0059
      4 C           3.3638   32.0156    5.7791 C.ar    1  UNL1        0.0102
      5 C           2.0939   31.7668    6.3322 C.ar    1  UNL1        0.1253
      6 O           1.0273   31.6604    5.4784 O.3     1  UNL1       -0.5062
      7 C           1.8763   31.6104    7.7218 C.ar    1  UNL1        0.0078
      8 C           0.4788   31.4306    8.2685 C.3     1  UNL1        0.0339
      9 C           2.9874   31.6190    8.6014 C.ar    1  UNL1       -0.0152
     10 H           0.4965   30.9024    5.7740 H       1  UNL1        0.2922
     11 C           3.5969   32.2032    4.2601 C.3     1  UNL1        0.0218
     12 C           5.1025   32.1261    3.9213 C.3     1  UNL1        0.0045
     13 C           2.9002   31.1186    3.3963 C.3     1  UNL1        0.0045
     14 C           3.0362   33.5585    3.7716 C.3     1  UNL1        0.0045
     15 C           2.8032   31.3588   10.0908 C.3     1  UNL1        0.1423
     16 C           2.5635   29.9104   10.4576 C.2     1  UNL1        0.2964
     17 N           3.4099   28.9790   10.0868 N.2     1  UNL1       -0.0649
     18 C           2.8334   27.7231   10.6436 C.3     1  UNL1        0.3130
     19 C           1.4169   28.0612   11.1072 C.3     1  UNL1        0.2574
     20 N           1.4921   29.4943   11.2083 N.pl3   1  UNL1       -0.2187
     21 H           0.6268   30.0282   11.1201 H       1  UNL1        0.2920
@<TRIPOS>BOND
     1     1     2    1
     2     2     3   ar
     3     2     9   ar
     4     3     4   ar
     5     4    11    1
     6     4     5   ar
     7    11    12    1
     8    11    13    1
     9    11    14    1
    10     5     6    1
    11     5     7   ar
    12     6    10    1
    13     7     8    1
    14     7     9   ar
    15     9    15    1
    16    15    16    1
    17    16    17    2
    18    16    20    1
    19    17    18    1
    20    18    19    1
    21    19    20    1
    22    20    21    1
#	Name:			CHEMBL765
#	Creating user name:	trannguyen
#	Creation time:		Tue Feb  8 18:26:14 2022


#	Modifying user name:	trannguyen
#	Modification time:	Tue Feb  8 18:26:14 2022

@<TRIPOS>MOLECULE
CHEMBL765
 18 18 0 0 0
SMALL
GASTEIGER

@<TRIPOS>ATOM
      1 C           1.6379   30.6776    8.6309 C.3     1  UNL1        0.2372
      2 N          -0.5987   28.5164   10.4698 N.pl3   1  UNL1       -0.2892
      3 C           0.4790   29.0055    9.8198 C.cat   1  UNL1        0.3773
      4 N           1.4712   28.0888    9.8169 N.pl3   1  UNL1       -0.2892
      5 N           0.4440   30.1834    9.3266 N.pl3   1  UNL1       -0.0966
      6 H          -0.3520   28.0873   11.3530 H       1  UNL1        0.2546
      7 H          -1.2782   29.2581   10.6105 H       1  UNL1        0.2546
      8 H           1.1230   27.1447    9.6978 H       1  UNL1        0.2546
      9 H           2.2229   28.2854    9.1691 H       1  UNL1        0.2546
     10 C           2.3977   31.6268    9.5793 C.3     1  UNL1        0.1196
     11 N           3.8788   31.6537    9.4202 N.3     1  UNL1       -0.2697
     12 C           4.4489   30.3160    9.6395 C.3     1  UNL1        0.0722
     13 C           5.9775   30.2123    9.7296 C.3     1  UNL1        0.0173
     14 C           6.6397   31.3103   10.5650 C.3     1  UNL1        0.0014
     15 C           7.2955   32.4172    9.7377 C.3     1  UNL1        0.0001
     16 C           6.3480   33.3124    8.9372 C.3     1  UNL1        0.0014
     17 C           5.6334   32.5967    7.7902 C.3     1  UNL1        0.0173
     18 C           4.1802   32.2059    8.0863 C.3     1  UNL1        0.0722
@<TRIPOS>BOND
     1     2     3    1
     2     2     6    1
     3     2     7    1
     4     3     4    1
     5     3     5    2
     6     4     8    1
     7     4     9    1
     8     5     1    1
     9     1    10    1
    10    10    11    1
    11    11    12    1
    12    11    18    1
    13    12    13    1
    14    13    14    1
    15    14    15    1
    16    15    16    1
    17    16    17    1
    18    17    18    1
#	Name:			CHEMBL768
#	Creating user name:	trannguyen
#	Creation time:		Tue Feb  8 18:26:14 2022


#	Modifying user name:	trannguyen
#	Modification time:	Tue Feb  8 18:26:14 2022

@<TRIPOS>MOLECULE
CHEMBL768
 23 23 0 0 0
SMALL
GASTEIGER

@<TRIPOS>ATOM
      1 C           2.7184   31.8069    6.4275 C.ar    1  UNL1       -0.0214
      2 C           2.3391   31.2042    5.2226 C.ar    1  UNL1       -0.0011
      3 C           3.2311   31.1599    4.1463 C.ar    1  UNL1        0.0366
      4 C           4.5072   31.7173    4.2646 C.ar    1  UNL1        0.1387
      5 C           4.8588   32.3608    5.4500 C.ar    1  UNL1        0.0366
      6 C           3.9689   32.4189    6.5174 C.ar    1  UNL1       -0.0011
      7 C           1.8053   31.8032    7.6228 C.3     1  UNL1        0.0380
      8 C           2.2100   30.7301    8.6229 C.3     1  UNL1        0.1142
      9 C           0.9860   30.1673    9.2828 C.2     1  UNL1        0.3174
     10 O          -0.1717   30.3372    8.8794 O.2     1  UNL1       -0.2501
     11 C           2.7504   29.1097   10.3989 C.3     1  UNL1        0.2556
     12 O           1.3511   29.3721   10.3198 O.3     1  UNL1       -0.4444
     13 O           5.3190   31.5902    3.1704 O.3     1  UNL1       -0.4728
     14 C           6.6181   31.0206    3.3918 C.3     1  UNL1        0.2358
     15 C           7.5685   31.3369    2.2309 C.3     1  UNL1        0.1697
     16 O           7.3909   30.4129    1.1607 O.3     1  UNL1       -0.3793
     17 H           6.5514   30.6845    0.7391 H       1  UNL1        0.2106
     18 C           7.4003   32.7841    1.7230 C.3     1  UNL1        0.1020
     19 N           8.6549   33.3683    1.2223 N.3     1  UNL1       -0.2964
     20 H           9.4219   32.7097    1.3959 H       1  UNL1        0.1233
     21 C           8.6038   33.7100   -0.2037 C.3     1  UNL1        0.0541
     22 C           9.3499   32.6373   -1.0045 C.3     1  UNL1        0.0171
     23 C           7.1771   33.8403   -0.7428 C.3     1  UNL1        0.0171
@<TRIPOS>BOND
     1    11    12    1
     2    12     9    1
     3     9    10    2
     4     9     8    1
     5     8     7    1
     6     7     1    1
     7     1     2   ar
     8     1     6   ar
     9     2     3   ar
    10     3     4   ar
    11     4    13    1
    12     4     5   ar
    13    13    14    1
    14    14    15    1
    15    15    16    1
    16    15    18    1
    17    16    17    1
    18    18    19    1
    19    19    21    1
    20    19    20    1
    21    21    22    1
    22    21    23    1
    23     5     6   ar
#	Name:			CHEMBL76904
#	Creating user name:	trannguyen
#	Creation time:		Tue Feb  8 18:26:14 2022


#	Modifying user name:	trannguyen
#	Modification time:	Tue Feb  8 18:26:14 2022

@<TRIPOS>MOLECULE
CHEMBL76904
 16 16 0 0 0
SMALL
GASTEIGER

@<TRIPOS>ATOM
      1 C           2.9344   30.2078    9.9585 C.ar    1  UNL1        0.0046
      2 C           3.9688   29.2619    9.8700 C.ar    1  UNL1        0.0034
      3 C           3.7248   27.9101   10.1375 C.ar    1  UNL1        0.0398
      4 C           2.4410   27.5103   10.4845 C.ar    1  UNL1        0.1675
      5 O           2.1368   26.2057   10.7551 O.3     1  UNL1       -0.5029
      6 C           1.4114   28.4443   10.5610 C.ar    1  UNL1        0.1675
      7 O           0.1494   28.0420   10.8925 O.3     1  UNL1       -0.5029
      8 C           1.6434   29.7884   10.2993 C.ar    1  UNL1        0.0398
      9 H           2.9512   25.6791   10.6787 H       1  UNL1        0.2923
     10 H           0.2285   27.0792   11.0464 H       1  UNL1        0.2923
     11 C           2.8728   32.2635    8.5196 C.2     1  UNL1        0.1365
     12 C           3.2220   31.6135    9.6481 C.2     1  UNL1        0.0208
     13 N           3.4982   34.7605    8.2887 N.1     1  UNL1       -0.1901
     14 C           3.2236   33.6364    8.3781 C.1     1  UNL1        0.1108
     15 C           2.1408   31.6447    7.4660 C.1     1  UNL1        0.1108
     16 N           1.5469   31.1512    6.6000 N.1     1  UNL1       -0.1901
@<TRIPOS>BOND
     1    13    14    3
     2    14    11    1
     3    11    15    1
     4    11    12    2
     5    15    16    3
     6    12     1    1
     7     1     2   ar
     8     1     8   ar
     9     2     3   ar
    10     3     4   ar
    11     4     5    1
    12     4     6   ar
    13     5     9    1
    14     6     7    1
    15     6     8   ar
    16     7    10    1
#	Name:			CHEMBL772
#	Creating user name:	trannguyen
#	Creation time:		Tue Feb  8 18:26:14 2022


#	Modifying user name:	trannguyen
#	Modification time:	Tue Feb  8 18:26:14 2022

@<TRIPOS>MOLECULE
CHEMBL772
 45 50 0 0 0
SMALL
GASTEIGER

@<TRIPOS>ATOM
      1 C           8.7845   34.1944    9.5418 C.3     1  UNL1        0.1298
      2 C           9.3655   32.8654    8.9978 C.3     1  UNL1        0.0163
      3 C          10.7537   32.5232    9.5788 C.3     1  UNL1        0.0227
      4 C          11.5371   31.6372    8.6105 C.3     1  UNL1        0.0956
      5 C          12.7986   31.0913    9.1923 C.ar    1  UNL1        0.0443
      6 N          12.9446   30.5073   10.4217 N.ar    1  UNL1       -0.3556
      7 H          12.2174   30.4056   11.1163 H       1  UNL1        0.1657
      8 C          14.2450   30.0731   10.5794 C.ar    1  UNL1        0.0591
      9 C          14.8705   29.4434   11.6662 C.ar    1  UNL1        0.0538
     10 C          16.2354   29.1474   11.5476 C.ar    1  UNL1        0.1402
     11 C          16.9185   29.4177   10.3614 C.ar    1  UNL1        0.0370
     12 C          16.2793   30.0299    9.2831 C.ar    1  UNL1        0.0043
     13 C          14.9256   30.3732    9.3964 C.ar    1  UNL1        0.0130
     14 C          14.0012   30.9929    8.5258 C.ar    1  UNL1       -0.0067
     15 C          14.1633   31.5037    7.1358 C.3     1  UNL1        0.0449
     16 C          12.7805   31.7758    6.4951 C.3     1  UNL1        0.0771
     17 N          11.8687   32.4593    7.4314 N.3     1  UNL1       -0.2688
     18 C          10.7214   33.0765    6.7822 C.3     1  UNL1        0.0725
     19 C           9.3624   32.7985    7.4494 C.3     1  UNL1        0.0203
     20 C           8.3068   33.7032    6.8174 C.3     1  UNL1        0.0476
     21 C           7.0518   33.7984    7.6709 C.3     1  UNL1        0.1966
     22 C           7.3394   34.4792    9.0326 C.3     1  UNL1        0.1656
     23 C           8.7858   34.1843   11.0680 C.2     1  UNL1        0.3191
     24 O           7.9867   33.5712   11.7645 O.2     1  UNL1       -0.2500
     25 C           9.4864   36.2636   11.9595 C.3     1  UNL1        0.2556
     26 O           9.8163   34.9355   11.5434 O.3     1  UNL1       -0.4443
     27 O          16.8216   28.5652   12.6449 O.3     1  UNL1       -0.4714
     28 C          18.2452   28.4870   12.5794 C.3     1  UNL1        0.2525
     29 O           7.1917   35.9090    8.9137 O.3     1  UNL1       -0.3493
     30 C           8.3863   36.6031    8.5568 C.3     1  UNL1        0.1742
     31 O           6.4683   32.5109    7.9421 O.3     1  UNL1       -0.4467
     32 C           5.2946   32.2636    7.2989 C.2     1  UNL1        0.3414
     33 O           5.0167   32.4752    6.1548 O.2     1  UNL1       -0.2449
     34 C           4.3453   31.7407    8.3237 C.ar    1  UNL1        0.0819
     35 C           4.7539   30.6617    9.0998 C.ar    1  UNL1        0.0467
     36 C           3.8583   30.0742    9.9917 C.ar    1  UNL1        0.1757
     37 C           2.5284   30.5514   10.0950 C.ar    1  UNL1        0.2061
     38 C           2.1370   31.6750    9.3409 C.ar    1  UNL1        0.1757
     39 C           3.0459   32.2509    8.4493 C.ar    1  UNL1        0.0467
     40 O           4.2057   28.9911   10.7667 O.3     1  UNL1       -0.4683
     41 C           4.3720   27.7661   10.0569 C.3     1  UNL1        0.2526
     42 O           1.7377   29.8767   10.9934 O.3     1  UNL1       -0.4654
     43 C           0.8638   28.8675   10.5018 C.3     1  UNL1        0.2528
     44 O           0.9040   32.2330    9.5696 O.3     1  UNL1       -0.4683
     45 C           0.8883   33.4639   10.2873 C.3     1  UNL1        0.2526
@<TRIPOS>BOND
     1    25    26    1
     2    26    23    1
     3    23    24    2
     4    23     1    1
     5     1     2    1
     6     1    22    1
     7     2     3    1
     8     2    19    1
     9     3     4    1
    10     4     5    1
    11     4    17    1
    12     5     6   ar
    13     5    14   ar
    14     6     7    1
    15     6     8   ar
    16     8     9   ar
    17     8    13   ar
    18     9    10   ar
    19    10    27    1
    20    10    11   ar
    21    27    28    1
    22    11    12   ar
    23    12    13   ar
    24    13    14   ar
    25    14    15    1
    26    15    16    1
    27    16    17    1
    28    17    18    1
    29    18    19    1
    30    19    20    1
    31    20    21    1
    32    21    22    1
    33    21    31    1
    34    31    32    1
    35    32    33    2
    36    32    34    1
    37    34    35   ar
    38    34    39   ar
    39    35    36   ar
    40    36    40    1
    41    36    37   ar
    42    40    41    1
    43    37    42    1
    44    37    38   ar
    45    42    43    1
    46    38    44    1
    47    38    39   ar
    48    44    45    1
    49    22    29    1
    50    29    30    1
#	Name:			CHEMBL773
#	Creating user name:	trannguyen
#	Creation time:		Tue Feb  8 18:26:14 2022


#	Modifying user name:	trannguyen
#	Modification time:	Tue Feb  8 18:26:14 2022

@<TRIPOS>MOLECULE
CHEMBL773
 8 7 0 0 0
SMALL
GASTEIGER

@<TRIPOS>ATOM
      1 N          -0.4584   28.4187   10.5593 N.3     1  GLY1       -0.3119
      2 CA          0.9921   28.6427   10.3161 C.3     1  GLY1        0.1762
      3 H1         -0.9716   28.8772    9.8006 H       1  GLY1        0.1193
      4 H2         -0.7200   28.9551   11.3943 H       1  GLY1        0.1193
      5 C           1.8040   27.7234   11.2261 C.2     1  GLY1        0.3299
      6 O           2.0624   27.9472   12.3974 O.2     1  GLY1       -0.2488
      7 OXT         2.2394   26.6251   10.5547 O.3     1  GLY1       -0.4792
      8 HXT         1.8929   26.7219    9.6321 H       1  GLY1        0.2951
@<TRIPOS>BOND
     1     1     2    1
     2     1     3    1
     3     1     4    1
     4     2     5    1
     5     5     6    2
     6     5     7    1
     7     7     8    1
#	Name:			CHEMBL77675
#	Creating user name:	trannguyen
#	Creation time:		Tue Feb  8 18:26:14 2022


#	Modifying user name:	trannguyen
#	Modification time:	Tue Feb  8 18:26:14 2022

@<TRIPOS>MOLECULE
CHEMBL77675
 19 20 0 0 0
SMALL
GASTEIGER

@<TRIPOS>ATOM
      1 N           0.3371   32.0905    8.4640 N.pl3   1  UNL1       -0.1290
      2 C           1.6199   32.1742    8.6262 C.cat   1  UNL1        0.3882
      3 H           0.1251   32.4365    7.5232 H       1  UNL1        0.3062
      4 N           2.5126   32.6524    7.7102 N.pl3   1  UNL1       -0.2421
      5 H           3.2511   33.2172    8.1117 H       1  UNL1        0.2649
      6 C           2.5726   32.5025    6.3151 C.ar    1  UNL1        0.1168
      7 C           2.7422   33.6551    5.5313 C.ar    1  UNL1        0.0334
      8 C           2.8733   33.5781    4.1418 C.ar    1  UNL1        0.0029
      9 C           2.8351   32.3403    3.5091 C.ar    1  UNL1        0.0002
     10 C           2.6537   31.1858    4.2673 C.ar    1  UNL1        0.0029
     11 C           2.5244   31.2676    5.6596 C.ar    1  UNL1        0.0334
     12 N           2.1865   31.6437    9.7537 N.pl3   1  UNL1       -0.2421
     13 H           2.8445   32.3122   10.1442 H       1  UNL1        0.2649
     14 C           2.7200   30.3329    9.8382 C.ar    1  UNL1        0.1168
     15 C           1.8561   29.2543   10.0716 C.ar    1  UNL1        0.0334
     16 C           2.3537   27.9506   10.1880 C.ar    1  UNL1        0.0029
     17 C           3.7247   27.7168   10.1023 C.ar    1  UNL1        0.0002
     18 C           4.5963   28.7830    9.9015 C.ar    1  UNL1        0.0029
     19 C           4.0970   30.0821    9.7797 C.ar    1  UNL1        0.0334
@<TRIPOS>BOND
     1     1     2    2
     2     1     3    1
     3     2     4    1
     4     2    12    1
     5     4     6    1
     6     4     5    1
     7     6     7   ar
     8     6    11   ar
     9     7     8   ar
    10     8     9   ar
    11     9    10   ar
    12    10    11   ar
    13    12    14    1
    14    12    13    1
    15    14    15   ar
    16    14    19   ar
    17    15    16   ar
    18    16    17   ar
    19    17    18   ar
    20    18    19   ar
#	Name:			CHEMBL783
#	Creating user name:	trannguyen
#	Creation time:		Tue Feb  8 18:26:14 2022


#	Modifying user name:	trannguyen
#	Modification time:	Tue Feb  8 18:26:14 2022

@<TRIPOS>MOLECULE
CHEMBL783
 25 26 0 0 0
SMALL
GASTEIGER

@<TRIPOS>ATOM
      1 C           4.4644   31.5096    9.0129 C.2     0  UNK0        0.2223
      2 O           4.3000   30.7896    9.9937 O.2     0  UNK0       -0.2751
      3 N           3.4410   31.6998    8.1108 N.am    1  PHE1       -0.2965
      4 H           3.4729   32.5185    7.5173 H       1  PHE1        0.1499
      5 C           8.1817   31.1174    7.4754 C.3     0  UNK0        0.0000
      6 C           7.7744   30.7924    8.9263 C.3     0  UNK0        0.0005
      7 C           6.9092   31.8490    9.6079 C.3     0  UNK0        0.0091
      8 C           5.7159   32.3549    8.7857 C.3     0  UNK0        0.0765
      9 C           6.0099   32.4782    7.2899 C.3     0  UNK0        0.0091
     10 C           7.4981   32.3958    6.9457 C.3     0  UNK0        0.0005
     11 C          10.2494   32.5249    6.8131 C.3     0  UNK0        0.0000
     12 C           9.7305   31.1527    7.2598 C.3     0  UNK0        0.0000
     13 C          10.5128   30.7108    8.5079 C.3     0  UNK0        0.0000
     14 CA          2.1487   30.9764    8.1931 C.3     1  PHE1        0.1756
     15 C           1.0996   31.7653    9.0089 C.2     1  PHE1        0.3322
     16 O           0.0056   32.1156    8.5495 O.2     1  PHE1       -0.2485
     17 OXT         1.3995   31.9974   10.3002 O.3     1  PHE1       -0.4790
     18 HXT         2.1396   31.4334   10.6062 H       1  PHE1        0.2951
     19 CB          1.5285   30.7021    6.8010 C.3     1  PHE1        0.0574
     20 CG          2.0808   31.5267    5.6622 C.ar    1  PHE1       -0.0200
     21 CD1         1.5087   32.7649    5.3391 C.ar    1  PHE1       -0.0042
     22 CE1         2.0074   33.5219    4.2780 C.ar    1  PHE1       -0.0003
     23 CZ          3.0750   33.0452    3.5211 C.ar    1  PHE1       -0.0000
     24 CE2         3.6468   31.8118    3.8267 C.ar    1  PHE1       -0.0003
     25 CD2         3.1543   31.0558    4.8932 C.ar    1  PHE1       -0.0042
@<TRIPOS>BOND
     1    11    12    1
     2    12    13    1
     3    12     5    1
     4     5     6    1
     5     5    10    1
     6     6     7    1
     7     7     8    1
     8     8     1    1
     9     8     9    1
    10     1     2    2
    11     1     3   am
    12     3     4    1
    13    14    19    1
    14    14    15    1
    15    14     3    1
    16    19    20    1
    17    20    21   ar
    18    20    25   ar
    19    21    22   ar
    20    22    23   ar
    21    23    24   ar
    22    24    25   ar
    23    15    16    2
    24    15    17    1
    25    17    18    1
    26     9    10    1
#	Name:			CHEMBL787
#	Creating user name:	trannguyen
#	Creation time:		Tue Feb  8 18:26:14 2022


#	Modifying user name:	trannguyen
#	Modification time:	Tue Feb  8 18:26:14 2022

@<TRIPOS>MOLECULE
CHEMBL787
 43 47 0 0 0
SMALL
GASTEIGER

@<TRIPOS>ATOM
      1 C          11.9346   33.4785    6.2603 C.3     1  UNL1        0.0701
      2 C          11.4190   32.0979    6.9208 C.ar    1  UNL1       -0.0125
      3 C          12.1106   31.6145    8.1018 C.ar    1  UNL1       -0.0034
      4 C          11.6875   30.5926    8.9294 C.ar    1  UNL1       -0.0003
      5 C          10.3886   30.1865    8.7957 C.ar    1  UNL1       -0.0000
      6 C           9.5455   30.7652    7.8131 C.ar    1  UNL1       -0.0002
      7 C          10.0718   31.6393    6.8090 C.ar    1  UNL1       -0.0034
      8 C           8.0852   30.6540    7.9909 C.2     1  UNL1        0.0015
      9 C           7.3585   31.6231    8.5734 C.2     1  UNL1        0.0191
     10 C           5.9538   31.5267    8.9149 C.ar    1  UNL1        0.0813
     11 C           5.0647   32.5701    8.7407 C.ar    1  UNL1        0.0191
     12 C           3.7414   32.3574    9.0855 C.ar    1  UNL1        0.0030
     13 C           3.3543   31.1147    9.5952 C.ar    1  UNL1        0.0178
     14 C           2.0309   30.8643    9.9714 C.ar    1  UNL1        0.0024
     15 C           1.6777   29.6142   10.4721 C.ar    1  UNL1        0.0115
     16 C           2.6444   28.6190   10.5864 C.ar    1  UNL1        0.0592
     17 CL          2.2063   27.0713   11.1955 Cl      1  UNL1       -0.0822
     18 C           3.9627   28.8662   10.2173 C.ar    1  UNL1        0.0305
     19 C           4.3334   30.1075    9.7319 C.ar    1  UNL1        0.0821
     20 N           5.6109   30.3151    9.4094 N.ar    1  UNL1       -0.2453
     21 C          11.1870   34.1178    4.9043 C.3     1  UNL1        0.0199
     22 C           9.5584   34.3705    4.5796 C.3     1  UNL1        0.0273
     23 C           7.7626   32.9099    3.0649 C.ar    1  UNL1       -0.0022
     24 C           6.5207   32.2397    3.0218 C.ar    1  UNL1       -0.0024
     25 C           5.6634   32.2895    4.0994 C.ar    1  UNL1       -0.0003
     26 C           6.0917   32.8751    5.2819 C.ar    1  UNL1       -0.0003
     27 C           7.4051   33.3594    5.4189 C.ar    1  UNL1       -0.0045
     28 C           8.3098   33.4080    4.3264 C.ar    1  UNL1       -0.0239
     29 C           7.1375   34.0239    1.0396 C.3     1  UNL1        0.0339
     30 C           8.2040   33.2671    1.6393 C.3     1  UNL1        0.1068
     31 C           8.2979   32.2076    0.5982 C.3     1  UNL1        0.0339
     32 O           9.4270   34.0107    1.5306 O.3     1  UNL1       -0.3827
     33 H           9.5802   34.5316    2.3366 H       1  UNL1        0.2107
     34 S          12.4101   34.7393    7.5377 S.3     1  UNL1       -0.1366
     35 C          11.0524   35.9183    7.4486 C.3     1  UNL1        0.0583
     36 C          10.1021   35.7957    8.6058 C.3     1  UNL1        0.0206
     37 C           8.7617   35.0208    8.5014 C.3     1  UNL1        0.0014
     38 C           9.9081   34.4473    9.1419 C.3     1  UNL1        0.0014
     39 C          10.0021   36.9602    9.5366 C.3     1  UNL1        0.1102
     40 C          11.0599   36.7309   10.6075 C.2     1  UNL1        0.3138
     41 O          12.2056   36.7957   10.4822 O.2     1  UNL1       -0.2503
     42 O          10.4835   36.6032   11.8401 O.3     1  UNL1       -0.4802
     43 H          11.2593   36.5630   12.4309 H       1  UNL1        0.2951
@<TRIPOS>BOND
     1    29    30    1
     2    30    31    1
     3    30    32    1
     4    30    23    1
     5    32    33    1
     6    23    24   ar
     7    23    28   ar
     8    24    25   ar
     9    25    26   ar
    10    26    27   ar
    11    27    28   ar
    12    28    22    1
    13    22    21    1
    14    21     1    1
    15     1    34    1
    16     1     2    1
    17    34    35    1
    18    35    36    1
    19    36    39    1
    20    36    37    1
    21    36    38    1
    22    39    40    1
    23    40    41    2
    24    40    42    1
    25    42    43    1
    26    37    38    1
    27     2     3   ar
    28     2     7   ar
    29     3     4   ar
    30     4     5   ar
    31     5     6   ar
    32     6     8    1
    33     6     7   ar
    34     8     9    2
    35     9    10    1
    36    10    11   ar
    37    10    20   ar
    38    11    12   ar
    39    12    13   ar
    40    13    14   ar
    41    13    19   ar
    42    14    15   ar
    43    15    16   ar
    44    16    17    1
    45    16    18   ar
    46    18    19   ar
    47    19    20   ar
#	Name:			CHEMBL788
#	Creating user name:	trannguyen
#	Creation time:		Tue Feb  8 18:26:14 2022


#	Modifying user name:	trannguyen
#	Modification time:	Tue Feb  8 18:26:14 2022

@<TRIPOS>MOLECULE
CHEMBL788
 20 21 0 0 0
SMALL
GASTEIGER

@<TRIPOS>ATOM
      1 O           2.9375   33.4940    4.7618 O.2     1  UNL1       -0.2666
      2 C           2.9007   32.8893    5.8296 C.ar    1  UNL1        0.2678
      3 N           1.7096   32.6432    6.4567 N.ar    1  UNL1       -0.2740
      4 H           0.8762   32.9728    5.9940 H       1  UNL1        0.1735
      5 C           1.5334   31.9863    7.6464 C.ar    1  UNL1        0.3322
      6 O           0.4035   31.7863    8.0835 O.2     1  UNL1       -0.2464
      7 N           2.6973   31.5722    8.2788 N.ar    1  UNL1       -0.2567
      8 C           3.9398   31.7473    7.6935 C.ar    1  UNL1        0.0924
      9 C           4.1120   32.3701    6.5202 C.ar    1  UNL1        0.1033
     10 I           5.9571   32.6141    5.6766 I       1  UNL1       -0.0360
     11 C1*         2.5512   30.8840    9.5585 C.3     1  UNL1        0.2106
     12 C2*         1.7191   29.6108    9.4548 C.3     1  UNL1        0.0858
     13 C3*         2.2317   28.8078   10.6249 C.3     1  UNL1        0.1445
     14 O3*         1.5770   29.2463   11.8149 O.3     1  UNL1       -0.3817
     15 C4*         3.7097   29.1883   10.6799 C.3     1  UNL1        0.1731
     16 O4*         3.8383   30.5011   10.0762 O.3     1  UNL1       -0.3327
     17 H3*         0.6516   28.9442   11.7807 H       1  UNL1        0.2104
     18 C5*         4.5943   28.2391    9.8677 C.3     1  UNL1        0.1692
     19 O5*         3.9892   26.9484    9.7978 O.3     1  UNL1       -0.3794
     20 H5*         3.5722   26.7916   10.6673 H       1  UNL1        0.2105
@<TRIPOS>BOND
     1     1     2    2
     2     2     3   ar
     3     2     9   ar
     4     3     4    1
     5     3     5   ar
     6     5     6    2
     7     5     7   ar
     8     7    11    1
     9     7     8   ar
    10    11    12    1
    11    11    16    1
    12    12    13    1
    13    13    14    1
    14    13    15    1
    15    14    17    1
    16    15    16    1
    17    15    18    1
    18    18    19    1
    19    19    20    1
    20     8     9   ar
    21     9    10    1
#	Name:			CHEMBL799
#	Creating user name:	trannguyen
#	Creation time:		Tue Feb  8 18:26:14 2022


#	Modifying user name:	trannguyen
#	Modification time:	Tue Feb  8 18:26:14 2022

@<TRIPOS>MOLECULE
CHEMBL799
 28 31 0 0 0
SMALL
GASTEIGER

@<TRIPOS>ATOM
      1 C           7.0037   31.6039    7.8794 C.3     1  UNL1        0.2054
      2 O           6.4758   31.8329    9.1878 O.3     1  UNL1       -0.4755
      3 O          -0.1429   28.2885   10.6456 O.2     1  UNL1       -0.2748
      4 C           1.0159   28.6648   10.5674 C.2     1  UNL1        0.2264
      5 C           2.1741   27.8501   11.1101 C.3     1  UNL1        0.0901
      6 C           3.4364   28.0397   10.2907 C.3     1  UNL1        0.0373
      7 C           3.7056   29.4938   10.0264 C.ar    1  UNL1       -0.0052
      8 C           5.0092   29.9501    9.7942 C.ar    1  UNL1        0.0339
      9 C           5.2463   31.2825    9.4475 C.ar    1  UNL1        0.1383
     10 C           4.1609   32.1572    9.3308 C.ar    1  UNL1        0.0381
     11 C           2.8536   31.7083    9.5468 C.ar    1  UNL1        0.0175
     12 C           2.6287   30.3798    9.8978 C.ar    1  UNL1        0.0465
     13 N           1.3255   29.9076   10.0900 N.am    1  UNL1       -0.2842
     14 H           0.5358   30.4969    9.8503 H       1  UNL1        0.1548
     15 C           8.0286   32.6891    7.5439 C.3     1  UNL1        0.0478
     16 C           8.0150   32.9954    6.0430 C.3     1  UNL1        0.0119
     17 C           7.2236   31.9659    5.2344 C.3     1  UNL1        0.0675
     18 C           6.3894   32.6251    4.1928 C.ar    1  UNL1        0.1608
     19 N           6.7641   32.8520    2.9483 N.ar    1  UNL1       -0.1127
     20 N           5.7092   33.4591    2.3274 N.ar    1  UNL1       -0.0230
     21 N           4.6983   33.6130    3.1635 N.ar    1  UNL1       -0.0432
     22 N           5.1065   33.1005    4.3387 N.ar    1  UNL1       -0.2189
     23 C           4.2234   33.0963    5.4967 C.3     1  UNL1        0.1082
     24 C           3.0563   34.0940    5.3924 C.3     1  UNL1        0.0245
     25 C           1.9703   33.6569    4.4097 C.3     1  UNL1        0.0020
     26 C           1.4729   32.2393    4.6832 C.3     1  UNL1        0.0001
     27 C           2.5899   31.2157    4.8828 C.3     1  UNL1        0.0020
     28 C           3.6822   31.6979    5.8388 C.3     1  UNL1        0.0245
@<TRIPOS>BOND
     1     3     4    2
     2     4     5    1
     3     4    13   am
     4     5     6    1
     5     6     7    1
     6     7     8   ar
     7     7    12   ar
     8     8     9   ar
     9     9     2    1
    10     9    10   ar
    11     2     1    1
    12     1    15    1
    13    15    16    1
    14    16    17    1
    15    17    18    1
    16    18    19   ar
    17    18    22   ar
    18    19    20   ar
    19    20    21   ar
    20    21    22   ar
    21    22    23    1
    22    23    24    1
    23    23    28    1
    24    24    25    1
    25    25    26    1
    26    26    27    1
    27    27    28    1
    28    10    11   ar
    29    11    12   ar
    30    12    13    1
    31    13    14    1
#	Name:			CHEMBL79
#	Creating user name:	trannguyen
#	Creation time:		Tue Feb  8 18:26:14 2022


#	Modifying user name:	trannguyen
#	Modification time:	Tue Feb  8 18:26:14 2022

@<TRIPOS>MOLECULE
CHEMBL79
 18 18 0 0 0
SMALL
GASTEIGER

@<TRIPOS>ATOM
      1 C           3.3276   32.2698    8.9961 C.2     1  UNL1        0.2425
      2 O           3.1863   32.6529   10.1639 O.2     1  UNL1       -0.2733
      3 N           3.0233   31.0007    8.5210 N.am    1  UNL1       -0.2833
      4 H           3.6960   30.7288    7.8048 H       1  UNL1        0.1549
      5 C           2.6079   29.9808    9.4158 C.ar    1  UNL1        0.0423
      6 C           1.2283   29.7610    9.6307 C.ar    1  UNL1       -0.0087
      7 C           0.1652   30.5416    8.9074 C.3     1  UNL1        0.0323
      8 C           0.8209   28.7415   10.5094 C.ar    1  UNL1       -0.0031
      9 C           1.7584   27.9433   11.1554 C.ar    1  UNL1       -0.0006
     10 C           3.1146   28.1390   10.9134 C.ar    1  UNL1       -0.0031
     11 C           3.5556   29.1340   10.0230 C.ar    1  UNL1       -0.0087
     12 C           5.0357   29.3009    9.8305 C.3     1  UNL1        0.0323
     13 C           3.8238   33.2229    7.8975 C.3     1  UNL1        0.1587
     14 N           3.9164   32.6054    6.5402 N.3     1  UNL1       -0.2650
     15 C           1.7213   32.2884    5.2890 C.3     1  UNL1        0.0188
     16 C           2.8957   33.2017    5.6373 C.3     1  UNL1        0.0726
     17 C           5.2683   32.8080    5.9635 C.3     1  UNL1        0.0726
     18 C           5.4949   32.0521    4.6523 C.3     1  UNL1        0.0188
@<TRIPOS>BOND
     1    15    16    1
     2    16    14    1
     3    14    17    1
     4    14    13    1
     5    17    18    1
     6    13     1    1
     7     1     2    2
     8     1     3   am
     9     3     5    1
    10     3     4    1
    11     5     6   ar
    12     5    11   ar
    13     6     7    1
    14     6     8   ar
    15     8     9   ar
    16     9    10   ar
    17    10    11   ar
    18    11    12    1
#	Name:			CHEMBL802
#	Creating user name:	trannguyen
#	Creation time:		Tue Feb  8 18:26:14 2022


#	Modifying user name:	trannguyen
#	Modification time:	Tue Feb  8 18:26:14 2022

@<TRIPOS>MOLECULE
CHEMBL802
 19 20 0 0 0
SMALL
GASTEIGER

@<TRIPOS>ATOM
      1 N          -0.3818   28.3096   10.6808 N.3     1  UNL1       -0.2879
      2 C           0.8771   28.7916   10.2405 C.3     1  UNL1        0.2219
      3 C           0.9646   29.8504    9.3459 C.2     1  UNL1        0.1189
      4 C           2.2159   30.3291    8.9782 C.2     1  UNL1        0.3307
      5 N           3.3478   29.7676    9.4547 N.2     1  UNL1        0.0233
      6 C           3.2799   28.7207   10.3149 C.2     1  UNL1        0.4143
      7 N           4.4706   28.1609   10.7908 N.pl3   1  UNL1       -0.2421
      8 N           2.0472   28.2211   10.7482 N.4     1  UNL1       -0.2850
      9 O           1.9715   27.2547   11.6025 O.co2   1  UNL1       -0.6871
     10 H          -0.9730   28.0174    9.9085 H       1  UNL1        0.1221
     11 H          -0.1761   27.5203   11.3095 H       1  UNL1        0.1221
     12 H           5.2107   28.8474   10.8394 H       1  UNL1        0.2421
     13 H           4.2725   27.6118   11.6269 H       1  UNL1        0.2421
     14 N           2.2949   31.4014    8.0635 N.pl3   1  UNL1       -0.1904
     15 C           1.9387   31.0057    6.6888 C.3     1  UNL1        0.2023
     16 C           1.8502   32.2500    5.8047 C.3     1  UNL1        0.0509
     17 C           3.1501   33.0482    5.8465 C.3     1  UNL1        0.0085
     18 C           3.5329   33.3756    7.2869 C.3     1  UNL1        0.0509
     19 C           3.5811   32.1160    8.1529 C.3     1  UNL1        0.2023
@<TRIPOS>UNITY_ATOM_ATTR
9 1
charge -1
@<TRIPOS>BOND
     1     1     2    1
     2     1    10    1
     3     1    11    1
     4     2     3    1
     5     2     8    1
     6     3     4    2
     7     4    14    1
     8     4     5    1
     9    14    15    1
    10    14    19    1
    11    15    16    1
    12    16    17    1
    13    17    18    1
    14    18    19    1
    15     5     6    2
    16     6     7    1
    17     6     8    1
    18     7    12    1
    19     7    13    1
    20     8     9    1
#	Name:			CHEMBL803
#	Creating user name:	trannguyen
#	Creation time:		Tue Feb  8 18:26:14 2022


#	Modifying user name:	trannguyen
#	Modification time:	Tue Feb  8 18:26:14 2022

@<TRIPOS>MOLECULE
CHEMBL803
 22 23 0 0 0
SMALL
GASTEIGER

@<TRIPOS>ATOM
      1 C1*         2.0419   31.2730   10.1900 C.3     1    C1        0.2383
      2 O4*         2.8643   30.2033   10.7053 O.3     1    C1       -0.3308
      3 C4*         2.1074   28.9717   10.6962 C.3     1    C1        0.1757
      4 C3*         0.8851   29.2186    9.8260 C.3     1    C1        0.1713
      5 O3*        -0.2307   28.4169   10.1998 O.3     1    C1       -0.3794
      6 C2*         0.6167   30.6910   10.0591 C.3     1    C1        0.1895
      7 O2*        -0.2367   31.1914    9.0361 O.3     1    C1       -0.3779
      8 H3*        -0.9900   28.7711    9.6953 H       1    C1        0.2105
      9 H2*        -0.1954   32.1725    9.0795 H       1    C1        0.2106
     10 N4          4.5822   33.5001    5.8150 N.pl3   1    C1       -0.3425
     11 C4          3.9511   32.9216    6.8822 C.ar    1    C1        0.1316
     12 C5          3.2847   31.6185    6.7128 C.ar    1    C1        0.0528
     13 C6          2.6479   31.1469    7.7833 C.ar    1    C1        0.0849
     14 N1          2.6389   31.8379    8.9765 N.ar    1    C1       -0.2536
     15 C2          3.3681   33.0261    9.1168 C.ar    1    C1        0.3530
     16 O2          3.4471   33.5819   10.2105 O.2     1    C1       -0.2443
     17 N3          3.9808   33.5622    8.0069 N.ar    1    C1       -0.1777
     18 H41         5.0771   32.8771    5.1885 H       1    C1        0.1437
     19 H42         5.1399   34.3031    6.0911 H       1    C1        0.1437
     20 C5*         2.9616   27.8182   10.1577 C.3     1    C1        0.1693
     21 O5*         2.2942   26.5701   10.3397 O.3     1    C1       -0.3794
     22 H5*         2.8617   25.8805    9.9552 H       1    C1        0.2105
@<TRIPOS>BOND
     1    10    11    1
     2    10    18    1
     3    10    19    1
     4    11    12   ar
     5    11    17   ar
     6    12    13   ar
     7    13    14   ar
     8    14    15   ar
     9     1     2    1
    10     1     6    1
    11     1    14    1
    12     2     3    1
    13     3    20    1
    14     3     4    1
    15    20    21    1
    16    21    22    1
    17     4     6    1
    18     4     5    1
    19     5     8    1
    20     6     7    1
    21     7     9    1
    22    15    16    2
    23    15    17   ar
#	Name:			CHEMBL806
#	Creating user name:	trannguyen
#	Creation time:		Tue Feb  8 18:26:14 2022


#	Modifying user name:	trannguyen
#	Modification time:	Tue Feb  8 18:26:14 2022

@<TRIPOS>MOLECULE
CHEMBL806
 20 20 0 0 0
SMALL
GASTEIGER

@<TRIPOS>ATOM
      1 C           1.9059   30.9536    8.1769 C.ar    1  UNL1        0.0503
      2 C           0.7631   30.3769    8.7348 C.ar    1  UNL1        0.0162
      3 C           0.8643   29.3790    9.7027 C.ar    1  UNL1        0.0211
      4 C           2.1267   28.9509   10.1217 C.ar    1  UNL1        0.0958
      5 C           3.3005   29.5103    9.6029 C.ar    1  UNL1        0.0910
      6 C           3.1656   30.5100    8.6106 C.ar    1  UNL1        0.0201
      7 C           2.1088   31.8261    5.8410 C.2     1  UNL1        0.2256
      8 O           2.4269   30.7742    5.2849 O.2     1  UNL1       -0.2748
      9 N           1.8636   31.9709    7.1996 N.am    1  UNL1       -0.2839
     10 H           1.6203   32.8989    7.5228 H       1  UNL1        0.1549
     11 C           2.9922   34.1647    5.6022 C.3     1  UNL1        0.0096
     12 C           2.0056   33.1316    5.0500 C.3     1  UNL1        0.0768
     13 C           2.2572   32.9268    3.5577 C.3     1  UNL1        0.0096
     14 C           4.6854   29.1260   10.0521 C.3     1  UNL1        0.4200
     15 F           4.9505   29.3277   11.3658 F       1  UNL1       -0.1658
     16 F           4.9655   27.8209    9.7926 F       1  UNL1       -0.1658
     17 F           5.6362   29.8428    9.3854 F       1  UNL1       -0.1658
     18 N           2.1572   27.8795   11.1004 N.pl3   1  UNL1       -0.1854
     19 O           1.9937   28.1988   12.2842 O.2     1  UNL1       -0.1725
     20 O           2.2979   26.7316   10.6637 O.co2   1  UNL1       -0.7770
@<TRIPOS>UNITY_ATOM_ATTR
20 1
charge -1
@<TRIPOS>BOND
     1    11    12    1
     2    12    13    1
     3    12     7    1
     4     7     8    2
     5     7     9   am
     6     9     1    1
     7     9    10    1
     8     1     2   ar
     9     1     6   ar
    10     2     3   ar
    11     3     4   ar
    12     4    18    1
    13     4     5   ar
    14    18    19    2
    15    18    20    1
    16     5    14    1
    17     5     6   ar
    18    14    15    1
    19    14    16    1
    20    14    17    1
#	Name:			CHEMBL808
#	Creating user name:	trannguyen
#	Creation time:		Tue Feb  8 18:26:14 2022


#	Modifying user name:	trannguyen
#	Modification time:	Tue Feb  8 18:26:14 2022

@<TRIPOS>MOLECULE
CHEMBL808
 24 26 0 0 0
SMALL
GASTEIGER

@<TRIPOS>ATOM
      1 C           2.9299   31.4397    9.5149 C.3     1  UNL1        0.1612
      2 C           2.9620   31.7218    8.0106 C.ar    1  UNL1        0.0171
      3 C           1.9460   31.2043    7.1768 C.ar    1  UNL1       -0.0002
      4 C           1.9415   31.4315    5.7994 C.ar    1  UNL1        0.0112
      5 C           2.9036   32.2583    5.2376 C.ar    1  UNL1        0.0585
      6 CL          2.8671   32.5817    3.5492 Cl      1  UNL1       -0.0822
      7 C           3.9013   32.8110    6.0333 C.ar    1  UNL1        0.0225
      8 C           3.9613   32.5009    7.3992 C.ar    1  UNL1        0.0568
      9 CL          5.3430   33.0696    8.2673 Cl      1  UNL1       -0.0825
     10 O           2.6603   32.6578   10.2257 O.3     1  UNL1       -0.3451
     11 C           1.2929   32.8868   10.5856 C.3     1  UNL1        0.1690
     12 CL          0.4833   38.8558   10.5441 Cl      1  UNL1       -0.0822
     13 C           0.6761   37.1515   10.3983 C.ar    1  UNL1        0.0577
     14 C           1.9304   36.6186   10.1159 C.ar    1  UNL1        0.0111
     15 C           2.1074   35.2321   10.1014 C.ar    1  UNL1       -0.0010
     16 C           1.0377   34.3677   10.3897 C.ar    1  UNL1        0.0073
     17 C          -0.2380   34.9202   10.5847 C.ar    1  UNL1       -0.0010
     18 C          -0.4139   36.3092   10.6066 C.ar    1  UNL1        0.0111
     19 C           1.7739   30.4706    9.8444 C.3     1  UNL1        0.1416
     20 N           2.2107   29.1845   10.3362 N.ar    1  UNL1       -0.3050
     21 C           3.2968   28.4749    9.9032 C.ar    1  UNL1        0.0981
     22 C           3.2085   27.2660   10.5399 C.ar    1  UNL1        0.1193
     23 N           2.1118   27.2344   11.3718 N.ar    1  UNL1       -0.2223
     24 C           1.5404   28.3968   11.2309 C.ar    1  UNL1        0.1787
@<TRIPOS>BOND
     1    12    13    1
     2    13    14   ar
     3    13    18   ar
     4    14    15   ar
     5    15    16   ar
     6    16    11    1
     7    16    17   ar
     8    11    10    1
     9    10     1    1
    10     1    19    1
    11     1     2    1
    12    19    20    1
    13    20    21   ar
    14    20    24   ar
    15    21    22   ar
    16    22    23   ar
    17    23    24   ar
    18     2     3   ar
    19     2     8   ar
    20     3     4   ar
    21     4     5   ar
    22     5     6    1
    23     5     7   ar
    24     7     8   ar
    25     8     9    1
    26    17    18   ar
#	Name:			CHEMBL809
#	Creating user name:	trannguyen
#	Creation time:		Tue Feb  8 18:26:14 2022


#	Modifying user name:	trannguyen
#	Modification time:	Tue Feb  8 18:26:14 2022

@<TRIPOS>MOLECULE
CHEMBL809
 21 23 0 0 0
SMALL
GASTEIGER

@<TRIPOS>ATOM
      1 C           1.7048   31.8260    9.3472 C.3     1  UNL1        0.0766
      2 C           2.6220   32.6983    8.4613 C.3     1  UNL1        0.0209
      3 C           3.5990   31.9012    7.6124 C.3     1  UNL1        0.0104
      4 C           4.4730   30.9717    8.4643 C.3     1  UNL1        0.0444
      5 C           3.6183   30.0992    9.3634 C.ar    1  UNL1       -0.0211
      6 C           4.1431   28.8641    9.7906 C.ar    1  UNL1       -0.0042
      7 C           3.3946   28.0056   10.5871 C.ar    1  UNL1       -0.0003
      8 C           2.1059   28.3670   10.9638 C.ar    1  UNL1       -0.0003
      9 C           1.5779   29.5944   10.5563 C.ar    1  UNL1       -0.0033
     10 C           2.3274   30.4949    9.7733 C.ar    1  UNL1       -0.0117
     11 C           5.6005   31.6980    9.1946 C.ar    1  UNL1       -0.0175
     12 C           6.8741   31.1095    9.2467 C.ar    1  UNL1       -0.0030
     13 C           7.9259   31.7356    9.9210 C.ar    1  UNL1        0.0119
     14 C           7.7255   32.9666   10.5496 C.ar    1  UNL1        0.0682
     15 CL          9.0731   33.6832   11.3601 Cl      1  UNL1       -0.0814
     16 C           6.4666   33.5708   10.5036 C.ar    1  UNL1        0.0679
     17 CL          6.1431   35.0904   11.2615 Cl      1  UNL1       -0.0814
     18 C           5.4140   32.9399    9.8284 C.ar    1  UNL1        0.0083
     19 C           1.8001   33.9887   10.5089 C.3     1  UNL1        0.0861
     20 N           1.3011   32.6191   10.5254 N.3     1  UNL1       -0.2940
     21 H           0.2858   32.6474   10.5882 H       1  UNL1        0.1235
@<TRIPOS>BOND
     1    19    20    1
     2    20    21    1
     3     1     2    1
     4     1    10    1
     5     1    20    1
     6     2     3    1
     7     3     4    1
     8     4    11    1
     9     4     5    1
    10    11    12   ar
    11    11    18   ar
    12    12    13   ar
    13    13    14   ar
    14    14    15    1
    15    14    16   ar
    16    16    17    1
    17    16    18   ar
    18     5     6   ar
    19     5    10   ar
    20     6     7   ar
    21     7     8   ar
    22     8     9   ar
    23     9    10   ar
#	Name:			CHEMBL80
#	Creating user name:	trannguyen
#	Creation time:		Tue Feb  8 18:26:14 2022


#	Modifying user name:	trannguyen
#	Modification time:	Tue Feb  8 18:26:14 2022

@<TRIPOS>MOLECULE
CHEMBL80
 26 30 0 0 0
SMALL
GASTEIGER

@<TRIPOS>ATOM
      1 N           3.0005   31.2088    9.9724 N.3     1  UNL1       -0.2678
      2 C           3.9913   30.3724    9.2685 C.3     1  UNL1        0.0730
      3 C           5.1560   31.1837    8.6790 C.3     1  UNL1        0.0277
      4 C           4.6624   32.4617    7.9456 C.3     1  UNL1        0.0902
      5 C           3.9842   32.0372    6.7075 C.ar    1  UNL1        0.0164
      6 C           2.6472   31.7217    6.5979 C.ar    1  UNL1       -0.0214
      7 C           2.2339   31.2909    5.3412 C.ar    1  UNL1       -0.0012
      8 C           3.1664   31.2015    4.2736 C.ar    1  UNL1        0.0394
      9 C           4.5122   31.5774    4.4411 C.ar    1  UNL1        0.1674
     10 O           5.3997   31.5281    3.4133 O.3     1  UNL1       -0.5029
     11 C           4.9070   32.0242    5.6762 C.ar    1  UNL1        0.1682
     12 O           6.1341   32.5182    6.0992 O.3     1  UNL1       -0.4686
     13 C           5.7471   33.2800    7.2596 C.3     1  UNL1        0.2283
     14 C           6.6430   33.7466    8.4101 C.2     1  UNL1        0.1907
     15 O           7.8673   33.6196    8.4135 O.2     1  UNL1       -0.2923
     16 C           5.9061   34.4925    9.5375 C.3     1  UNL1        0.0708
     17 C           4.5975   33.8103   10.0164 C.3     1  UNL1        0.0366
     18 C           3.7469   33.2946    8.8319 C.3     1  UNL1        0.1094
     19 O           3.2850   34.4746    8.1532 O.3     1  UNL1       -0.3850
     20 C           2.5322   32.3532    9.1458 C.3     1  UNL1        0.0872
     21 C           1.7645   31.9613    7.8027 C.3     1  UNL1        0.0445
     22 H           4.9506   31.1827    2.6263 H       1  UNL1        0.2923
     23 H           2.6285   34.9121    8.7248 H       1  UNL1        0.2103
     24 C           1.9263   30.3539   10.5003 C.3     1  UNL1        0.0989
     25 C           1.9366   27.9442   11.2041 C.2     1  UNL1       -0.0035
     26 C           2.1692   28.8881   10.2813 C.2     1  UNL1       -0.0088
@<TRIPOS>BOND
     1    25    26    2
     2    26    24    1
     3    24     1    1
     4     1     2    1
     5     1    20    1
     6     2     3    1
     7     4     3    1
     8     4     5    1
     9     4    13    1
    10     4    18    1
    11     5     6   ar
    12     5    11   ar
    13     6     7   ar
    14     6    21    1
    15     7     8   ar
    16     8     9   ar
    17     9    10    1
    18     9    11   ar
    19    10    22    1
    20    11    12    1
    21    12    13    1
    22    13    14    1
    23    14    15    2
    24    14    16    1
    25    16    17    1
    26    17    18    1
    27    18    19    1
    28    18    20    1
    29    19    23    1
    30    20    21    1
#	Name:			CHEMBL817
#	Creating user name:	trannguyen
#	Creation time:		Tue Feb  8 18:26:14 2022


#	Modifying user name:	trannguyen
#	Modification time:	Tue Feb  8 18:26:14 2022

@<TRIPOS>MOLECULE
CHEMBL817
 23 24 0 0 0
SMALL
GASTEIGER

@<TRIPOS>ATOM
      1 N           5.8322   32.2665    7.9755 N.am    1  UNL1       -0.1683
      2 C           6.3765   33.3115    7.2426 C.2     1  UNL1        0.3328
      3 O           7.3188   33.9969    7.5972 O.2     1  UNL1       -0.2499
      4 N           5.7505   33.5210    6.0299 N.am    1  UNL1       -0.2296
      5 H           5.0365   31.7995    7.5578 H       1  UNL1        0.1782
      6 H           6.1448   34.2519    5.4441 H       1  UNL1        0.1709
      7 N           4.6544   32.7306    5.5913 N.3     1  UNL1       -0.2047
      8 C           3.3936   33.4333    5.8810 C.3     1  UNL1        0.0919
      9 C           2.1278   32.6172    5.6146 C.3     1  UNL1        0.0191
     10 C           1.8345   32.4275    4.1327 C.3     1  UNL1        0.0015
     11 C           2.5762   31.2669    3.4821 C.3     1  UNL1        0.0015
     12 C           4.0537   31.0995    3.8261 C.3     1  UNL1        0.0191
     13 C           4.8139   32.3786    4.1699 C.3     1  UNL1        0.0919
     14 S           6.2782   31.7709    9.4791 S.O2    1  UNL1        0.0768
     15 O           5.9737   32.8730   10.3741 O.2     1  UNL1       -0.1498
     16 O           7.5901   31.1724    9.4694 O.2     1  UNL1       -0.1498
     17 C           2.2150   27.3224   10.2006 C.3     1  UNL1        0.0310
     18 C           3.2108   28.4419   10.1063 C.ar    1  UNL1       -0.0218
     19 C           2.8035   29.7193    9.6971 C.ar    1  UNL1       -0.0029
     20 C           3.7347   30.7472    9.5438 C.ar    1  UNL1        0.0199
     21 C           5.0844   30.4925    9.7904 C.ar    1  UNL1        0.1253
     22 C           5.5079   29.2242   10.2000 C.ar    1  UNL1        0.0199
     23 C           4.5689   28.2026   10.3600 C.ar    1  UNL1       -0.0029
@<TRIPOS>BOND
     1    17    18    1
     2    18    19   ar
     3    18    23   ar
     4    19    20   ar
     5    20    21   ar
     6    21    14    1
     7    21    22   ar
     8    14    15    2
     9    14    16    2
    10    14     1    1
    11     1     2   am
    12     1     5    1
    13     2     3    2
    14     2     4   am
    15     4     7    1
    16     4     6    1
    17     7     8    1
    18     7    13    1
    19     8     9    1
    20     9    10    1
    21    10    11    1
    22    11    12    1
    23    12    13    1
    24    22    23   ar
#	Name:			CHEMBL81977
#	Creating user name:	trannguyen
#	Creation time:		Tue Feb  8 18:26:14 2022


#	Modifying user name:	trannguyen
#	Modification time:	Tue Feb  8 18:26:14 2022

@<TRIPOS>MOLECULE
CHEMBL81977
 14 14 0 0 0
SMALL
GASTEIGER

@<TRIPOS>ATOM
      1 C           1.7764   29.4159   10.1131 C.ar    1  UNL1        0.0543
      2 C           3.1591   29.3106   10.2970 C.ar    1  UNL1        0.0046
      3 C           4.0207   30.1410    9.5834 C.ar    1  UNL1        0.0014
      4 C           3.5001   31.0958    8.7077 C.ar    1  UNL1        0.0141
      5 C           2.1192   31.2687    8.5756 C.ar    1  UNL1        0.0417
      6 N           1.6103   32.1528    7.6153 N.pl3   1  UNL1       -0.3570
      7 C           1.2621   30.3897    9.2450 C.ar    1  UNL1        0.0186
      8 H           2.2296   32.9322    7.4122 H       1  UNL1        0.1424
      9 H           0.6620   32.4641    7.8026 H       1  UNL1        0.1424
     10 N          -0.4316   28.4630   10.5308 N.am    1  UNL1       -0.3253
     11 C           0.8947   28.4835   10.8630 C.2     1  UNL1        0.2428
     12 O           1.3361   27.7308   11.7220 O.2     1  UNL1       -0.2704
     13 H          -0.9904   27.7459   10.9755 H       1  UNL1        0.1453
     14 H          -0.7825   28.8668    9.6746 H       1  UNL1        0.1453
@<TRIPOS>BOND
     1    10    11   am
     2    10    13    1
     3    10    14    1
     4    11    12    2
     5    11     1    1
     6     1     2   ar
     7     1     7   ar
     8     2     3   ar
     9     3     4   ar
    10     4     5   ar
    11     5     6    1
    12     5     7   ar
    13     6     8    1
    14     6     9    1
#	Name:			CHEMBL81
#	Creating user name:	trannguyen
#	Creation time:		Tue Feb  8 18:26:14 2022


#	Modifying user name:	trannguyen
#	Modification time:	Tue Feb  8 18:26:14 2022

@<TRIPOS>MOLECULE
CHEMBL81
 36 40 0 0 0
SMALL
GASTEIGER

@<TRIPOS>ATOM
      1 C           3.9496   31.2233    8.7030 C.ar    1  UNL1        0.0454
      2 C           5.0762   30.7492    9.3972 C.ar    1  UNL1        0.0325
      3 S           4.6326   29.3865   10.3760 S.2     1  UNL1       -0.0867
      4 C           2.9837   29.4629    9.9947 C.ar    1  UNL1        0.0326
      5 C           1.9745   28.6056   10.4909 C.ar    1  UNL1        0.0431
      6 C           0.6568   28.8486   10.1116 C.ar    1  UNL1        0.1342
      7 O          -0.3608   28.0560   10.5557 O.3     1  UNL1       -0.5055
      8 C           0.3390   29.9027    9.2852 C.ar    1  UNL1        0.0367
      9 C           1.3533   30.7269    8.7813 C.ar    1  UNL1        0.0037
     10 C           2.7224   30.5147    9.1224 C.ar    1  UNL1        0.0098
     11 H           0.0145   27.3267   11.0768 H       1  UNL1        0.2922
     12 C           6.5030   31.1900    9.5389 C.ar    1  UNL1        0.0063
     13 C           7.4804   30.8951    8.5716 C.ar    1  UNL1        0.0036
     14 C           8.7843   31.4365    8.6655 C.ar    1  UNL1        0.0366
     15 C           9.1140   32.2948    9.7013 C.ar    1  UNL1        0.1337
     16 O          10.3441   32.8693    9.8168 O.3     1  UNL1       -0.5055
     17 C           8.1740   32.6063   10.6715 C.ar    1  UNL1        0.0366
     18 C           6.8973   32.0379   10.5967 C.ar    1  UNL1        0.0036
     19 H          10.9124   32.5481    9.1003 H       1  UNL1        0.2922
     20 O           3.2804   33.3904    8.0639 O.2     1  UNL1       -0.2866
     21 C           3.8644   32.3467    7.7480 C.2     1  UNL1        0.1960
     22 C           4.3914   32.2995    6.3576 C.ar    1  UNL1        0.0392
     23 C           3.6709   31.7510    5.2979 C.ar    1  UNL1        0.0063
     24 C           4.2274   31.7154    4.0160 C.ar    1  UNL1        0.0370
     25 C           5.5050   32.2259    3.7681 C.ar    1  UNL1        0.1386
     26 C           6.1942   32.8500    4.8076 C.ar    1  UNL1        0.0370
     27 C           5.6360   32.8958    6.0899 C.ar    1  UNL1        0.0063
     28 O           6.1439   32.2133    2.5593 O.3     1  UNL1       -0.4740
     29 C           7.5528   31.9458    2.5431 C.3     1  UNL1        0.2226
     30 C           8.0253   31.6893    1.1004 C.3     1  UNL1        0.1200
     31 N           8.7338   32.8304    0.4918 N.3     1  UNL1       -0.2696
     32 C           9.1468   32.5638   -0.8957 C.3     1  UNL1        0.0722
     33 C           8.0461   32.7545   -1.9477 C.3     1  UNL1        0.0174
     34 C           7.3297   34.0918   -1.7895 C.3     1  UNL1        0.0029
     35 C           6.8612   34.2682   -0.3518 C.3     1  UNL1        0.0174
     36 C           8.0468   34.1232    0.5991 C.3     1  UNL1        0.0722
@<TRIPOS>BOND
     1    20    21    2
     2    21    22    1
     3    21     1    1
     4    22    23   ar
     5    22    27   ar
     6    23    24   ar
     7    24    25   ar
     8    25    28    1
     9    25    26   ar
    10    28    29    1
    11    29    30    1
    12    30    31    1
    13    31    32    1
    14    31    36    1
    15    32    33    1
    16    33    34    1
    17    34    35    1
    18    35    36    1
    19    26    27   ar
    20     1     2   ar
    21     1    10   ar
    22     2    12    1
    23     2     3   ar
    24    12    13   ar
    25    12    18   ar
    26    13    14   ar
    27    14    15   ar
    28    15    16    1
    29    15    17   ar
    30    16    19    1
    31    17    18   ar
    32     3     4   ar
    33     4     5   ar
    34     4    10   ar
    35     5     6   ar
    36     6     7    1
    37     6     8   ar
    38     7    11    1
    39     8     9   ar
    40     9    10   ar
#	Name:			CHEMBL820
#	Creating user name:	trannguyen
#	Creation time:		Tue Feb  8 18:26:14 2022


#	Modifying user name:	trannguyen
#	Modification time:	Tue Feb  8 18:26:14 2022

@<TRIPOS>MOLECULE
CHEMBL820
 14 13 0 0 0
SMALL
GASTEIGER

@<TRIPOS>ATOM
      1 C           5.5284   29.8166   10.2244 C.3     1  UNL1        0.0373
      2 C           4.1161   29.4267    9.8067 C.3     1  UNL1        0.1744
      3 O           3.3350   29.1668   10.9667 O.3     1  UNL1       -0.2243
      4 C           0.9449   28.7806   10.0293 C.3     1  UNL1        0.2097
      5 S           2.2352   27.9595   10.9412 S.O2    1  UNL1        0.0957
      6 O           1.7669   27.7155   12.2892 O.2     1  UNL1       -0.1464
      7 O           2.7635   26.8801   10.1121 O.2     1  UNL1       -0.1464
      8 C           6.2752   30.6442    9.1719 C.3     1  UNL1        0.0373
      9 C           7.5456   31.3253    9.6768 C.3     1  UNL1        0.1744
     10 O           7.3487   32.7266    9.8024 O.3     1  UNL1       -0.2243
     11 S           7.4392   33.3340   11.3159 S.O2    1  UNL1        0.0957
     12 C           9.2015   33.5432   11.3975 C.3     1  UNL1        0.2097
     13 O           6.8163   34.6410   11.3211 O.2     1  UNL1       -0.1464
     14 O           7.0466   32.2974   12.2453 O.2     1  UNL1       -0.1464
@<TRIPOS>BOND
     1     4     5    1
     2     5     6    2
     3     5     7    2
     4     5     3    1
     5     3     2    1
     6     2     1    1
     7     1     8    1
     8     8     9    1
     9     9    10    1
    10    10    11    1
    11    11    12    1
    12    11    13    2
    13    11    14    2
#	Name:			CHEMBL822
#	Creating user name:	trannguyen
#	Creation time:		Tue Feb  8 18:26:14 2022


#	Modifying user name:	trannguyen
#	Modification time:	Tue Feb  8 18:26:14 2022

@<TRIPOS>MOLECULE
CHEMBL822
 22 23 0 0 0
SMALL
GASTEIGER

@<TRIPOS>ATOM
      1 C           7.0653   32.5008   10.8848 C.3     1  UNL1        0.0902
      2 N           6.2616   32.7562    9.6838 N.3     1  UNL1       -0.2639
      3 C           7.0143   33.5321    8.6816 C.3     1  UNL1        0.0998
      4 C           8.4957   33.2553    8.7144 C.2     1  UNL1        0.0001
      5 C           9.2087   32.9422    7.6227 C.2     1  UNL1        0.0461
      6 C          10.5939   32.6210    7.6706 C.1     1  UNL1       -0.0641
      7 C          11.7398   32.2763    7.7529 C.1     1  UNL1       -0.0884
      8 C          13.1370   31.7927    7.8796 C.3     1  UNL1        0.0544
      9 C          13.1818   30.5765    8.8135 C.3     1  UNL1        0.0130
     10 C          13.6727   31.3947    6.4964 C.3     1  UNL1        0.0130
     11 C          14.0117   32.9169    8.4547 C.3     1  UNL1        0.0130
     12 C           5.7988   31.4544    9.1438 C.3     1  UNL1        0.0994
     13 C           4.3005   31.2111    9.2375 C.ar    1  UNL1       -0.0061
     14 C           3.4426   32.3030    9.0009 C.ar    1  UNL1       -0.0029
     15 C           2.0678   32.1788    9.1655 C.ar    1  UNL1       -0.0003
     16 C           1.5296   30.9659    9.5837 C.ar    1  UNL1       -0.0000
     17 C           2.3497   29.8469    9.7908 C.ar    1  UNL1       -0.0003
     18 C           1.7882   28.6283   10.2068 C.ar    1  UNL1       -0.0000
     19 C           2.5801   27.4942   10.3794 C.ar    1  UNL1       -0.0000
     20 C           3.9438   27.5623   10.1309 C.ar    1  UNL1       -0.0000
     21 C           4.5199   28.7735    9.7443 C.ar    1  UNL1       -0.0003
     22 C           3.7486   29.9464    9.5832 C.ar    1  UNL1       -0.0027
@<TRIPOS>BOND
     1     1     2    1
     2     2     3    1
     3     2    12    1
     4     3     4    1
     5     4     5    2
     6     5     6    1
     7     6     7    3
     8     7     8    1
     9     8     9    1
    10     8    10    1
    11     8    11    1
    12    12    13    1
    13    13    14   ar
    14    13    22   ar
    15    14    15   ar
    16    15    16   ar
    17    16    17   ar
    18    17    18   ar
    19    17    22   ar
    20    18    19   ar
    21    19    20   ar
    22    20    21   ar
    23    21    22   ar
#	Name:			CHEMBL826
#	Creating user name:	trannguyen
#	Creation time:		Tue Feb  8 18:26:14 2022


#	Modifying user name:	trannguyen
#	Modification time:	Tue Feb  8 18:26:14 2022

@<TRIPOS>MOLECULE
CHEMBL826
 25 27 0 0 0
SMALL
GASTEIGER

@<TRIPOS>ATOM
      1 N           2.2932   31.0847    8.2790 N.ar    1  UNL1       -0.3111
      2 C           1.3158   30.2851    8.8543 C.ar    1  UNL1        0.0867
      3 C           1.5090   29.4003    9.8443 C.ar    1  UNL1        0.1315
      4 C           2.8914   29.2642   10.3466 C.ar    1  UNL1        0.2062
      5 O           3.1461   28.4667   11.2483 O.2     1  UNL1       -0.2862
      6 C           3.9475   30.0988    9.7458 C.ar    1  UNL1        0.0757
      7 C           5.2543   29.9909   10.2010 C.ar    1  UNL1        0.0387
      8 C           6.2218   30.7907    9.6198 C.ar    1  UNL1        0.1717
      9 F           7.4731   30.6927   10.0930 F       1  UNL1       -0.2012
     10 C           5.8913   31.6732    8.5776 C.ar    1  UNL1        0.1610
     11 N           4.5999   31.7753    8.1624 N.ar    1  UNL1       -0.2112
     12 C           3.6352   30.9994    8.7234 C.ar    1  UNL1        0.1484
     13 N           6.8852   32.4674    7.9539 N.pl3   1  UNL1       -0.2886
     14 C           7.1574   33.7376    8.6664 C.3     1  UNL1        0.1093
     15 C           8.2488   34.5560    7.9378 C.3     1  UNL1        0.0904
     16 N           7.9132   34.8313    6.5284 N.3     1  UNL1       -0.2946
     17 C           7.6892   33.5493    5.8417 C.3     1  UNL1        0.0904
     18 C           6.6128   32.6690    6.5106 C.3     1  UNL1        0.1093
     19 H           8.6933   35.3139    6.0851 H       1  UNL1        0.1233
     20 C           0.3709   28.6234   10.3794 C.2     1  UNL1        0.3427
     21 O          -0.7773   28.7707    9.9993 O.2     1  UNL1       -0.2449
     22 O           0.7025   27.7285   11.3393 O.3     1  UNL1       -0.4770
     23 H           1.6650   27.7019   11.5562 H       1  UNL1        0.2954
     24 C           2.0036   31.2961    5.8348 C.3     1  UNL1        0.0265
     25 C           2.0347   32.0190    7.1747 C.3     1  UNL1        0.1076
@<TRIPOS>BOND
     1    24    25    1
     2    25     1    1
     3     1     2   ar
     4     1    12   ar
     5     2     3   ar
     6     3    20    1
     7     3     4   ar
     8    20    21    2
     9    20    22    1
    10    22    23    1
    11     4     5    2
    12     4     6   ar
    13     6     7   ar
    14     6    12   ar
    15     7     8   ar
    16     8     9    1
    17     8    10   ar
    18    10    13    1
    19    10    11   ar
    20    13    14    1
    21    13    18    1
    22    14    15    1
    23    15    16    1
    24    16    17    1
    25    16    19    1
    26    17    18    1
    27    11    12   ar
#	Name:			CHEMBL828
#	Creating user name:	trannguyen
#	Creation time:		Tue Feb  8 18:26:14 2022


#	Modifying user name:	trannguyen
#	Modification time:	Tue Feb  8 18:26:14 2022

@<TRIPOS>MOLECULE
CHEMBL828
 15 17 0 0 0
SMALL
GASTEIGER

@<TRIPOS>ATOM
      1 C           7.7745   32.2595    9.1477 C.ar    1  UNL1        0.0013
      2 C           6.9887   33.3163    8.7011 C.ar    1  UNL1        0.0006
      3 C           5.5998   33.1891    8.6875 C.ar    1  UNL1        0.0077
      4 C           4.9843   32.0044    9.1203 C.ar    1  UNL1        0.0429
      5 C           5.7734   30.9330    9.5724 C.ar    1  UNL1        0.0544
      6 C           7.1704   31.0771    9.5801 C.ar    1  UNL1        0.0151
      7 N           5.2109   29.7258   10.0178 N.pl3   1  UNL1       -0.3117
      8 C           3.8463   29.4006   10.0800 C.ar    1  UNL1        0.0544
      9 C           3.4692   28.1338   10.5551 C.ar    1  UNL1        0.0151
     10 C           2.1243   27.7664   10.6360 C.ar    1  UNL1        0.0013
     11 C           1.1362   28.6620   10.2424 C.ar    1  UNL1        0.0006
     12 C           1.4942   29.9240    9.7687 C.ar    1  UNL1        0.0077
     13 C           2.8433   30.3016    9.6841 C.ar    1  UNL1        0.0429
     14 S           3.2011   31.9377    9.0655 S.3     1  UNL1       -0.0844
     15 H           5.8583   29.0120   10.3199 H       1  UNL1        0.1522
@<TRIPOS>BOND
     1     1     2   ar
     2     1     6   ar
     3     2     3   ar
     4     3     4   ar
     5     4     5   ar
     6     4    14    1
     7     5     6   ar
     8     5     7    1
     9     7     8    1
    10     7    15    1
    11     8     9   ar
    12     8    13   ar
    13     9    10   ar
    14    10    11   ar
    15    11    12   ar
    16    12    13   ar
    17    13    14    1
#	Name:			CHEMBL832
#	Creating user name:	trannguyen
#	Creation time:		Tue Feb  8 18:26:14 2022


#	Modifying user name:	trannguyen
#	Modification time:	Tue Feb  8 18:26:14 2022

@<TRIPOS>MOLECULE
CHEMBL832
 29 32 0 0 0
SMALL
GASTEIGER

@<TRIPOS>ATOM
      1 O           3.6538   33.5801   10.5933 O.2     1  UNL1       -0.2725
      2 C           4.0079   33.3285    9.4470 C.2     1  UNL1        0.2540
      3 C           5.3791   33.6519    8.8976 C.3     1  UNL1        0.1575
      4 C           5.3376   33.1571    7.4743 C.2     1  UNL1        0.2540
      5 O           6.2207   33.3735    6.6517 O.2     1  UNL1       -0.2725
      6 N           4.1053   32.5301    7.2855 N.am    1  UNL1       -0.1788
      7 N           3.3153   32.6252    8.4503 N.am    1  UNL1       -0.1788
      8 C           3.5225   32.4577    5.9893 C.ar    1  UNL1        0.0734
      9 C           2.9094   33.5875    5.4333 C.ar    1  UNL1        0.0166
     10 C           2.3466   33.5332    4.1558 C.ar    1  UNL1        0.0013
     11 C           2.3634   32.3410    3.4354 C.ar    1  UNL1        0.0001
     12 C           2.9610   31.2077    3.9822 C.ar    1  UNL1        0.0013
     13 C           3.5557   31.2700    5.2449 C.ar    1  UNL1        0.0166
     14 C           2.4445   31.5600    8.8284 C.ar    1  UNL1        0.0734
     15 C           2.9582   30.3587    9.3413 C.ar    1  UNL1        0.0166
     16 C           2.1021   29.3329    9.7469 C.ar    1  UNL1        0.0013
     17 C           0.7247   29.4831    9.6137 C.ar    1  UNL1        0.0001
     18 C           0.2028   30.6619    9.0841 C.ar    1  UNL1        0.0013
     19 C           1.0575   31.7016    8.7048 C.ar    1  UNL1        0.0166
     20 C           6.4636   32.9502    9.7209 C.3     1  UNL1        0.0320
     21 C           7.5241   33.9091   10.2628 C.3     1  UNL1        0.0836
     22 S           8.7538   34.3133    8.9659 S.3     1  UNL1       -0.0008
     23 O           9.7904   35.3030    9.6131 O.3     1  UNL1       -0.1564
     24 C           9.5467   32.6859    8.9279 C.ar    1  UNL1        0.0437
     25 C          10.6102   32.4132    9.7948 C.ar    1  UNL1        0.0076
     26 C          11.2495   31.1718    9.7496 C.ar    1  UNL1        0.0005
     27 C          10.8295   30.2013    8.8400 C.ar    1  UNL1        0.0000
     28 C           9.7618   30.4640    7.9833 C.ar    1  UNL1        0.0005
     29 C           9.1177   31.7013    8.0306 C.ar    1  UNL1        0.0076
@<TRIPOS>BOND
     1     1     2    2
     2     2     3    1
     3     2     7   am
     4     3    20    1
     5     3     4    1
     6    20    21    1
     7    21    22    1
     8    22    23    1
     9    22    24    1
    10    24    25   ar
    11    24    29   ar
    12    25    26   ar
    13    26    27   ar
    14    27    28   ar
    15    28    29   ar
    16     4     5    2
    17     4     6   am
    18     6     8    1
    19     6     7    1
    20     8     9   ar
    21     8    13   ar
    22     9    10   ar
    23    10    11   ar
    24    11    12   ar
    25    12    13   ar
    26     7    14    1
    27    14    15   ar
    28    14    19   ar
    29    15    16   ar
    30    16    17   ar
    31    17    18   ar
    32    18    19   ar
#	Name:			CHEMBL833
#	Creating user name:	trannguyen
#	Creation time:		Tue Feb  8 18:26:14 2022


#	Modifying user name:	trannguyen
#	Modification time:	Tue Feb  8 18:26:14 2022

@<TRIPOS>MOLECULE
CHEMBL833
 17 19 0 0 0
SMALL
GASTEIGER

@<TRIPOS>ATOM
      1 N           3.3658   31.6829    7.9184 N.3     1  UNL1       -0.2648
      2 C           4.2844   32.8334    7.7316 C.3     1  UNL1        0.0779
      3 C           4.9195   32.8260    6.3249 C.3     1  UNL1        0.0500
      4 C           3.8446   32.6193    5.3111 C.ar    1  UNL1        0.0060
      5 S           4.0541   32.9290    3.6565 S.2     1  UNL1       -0.0910
      6 C           2.4463   32.4477    3.3175 C.ar    1  UNL1        0.0348
      7 C           1.7727   32.0476    4.4561 C.ar    1  UNL1        0.0042
      8 C           2.5901   32.1392    5.6261 C.ar    1  UNL1       -0.0036
      9 C           2.1744   31.8195    7.0403 C.3     1  UNL1        0.0996
     10 C           2.9653   31.5891    9.3370 C.3     1  UNL1        0.1002
     11 CL          5.4935   29.7419    9.7921 Cl      1  UNL1       -0.0825
     12 C           3.8480   29.2887   10.0637 C.ar    1  UNL1        0.0550
     13 C           3.6162   27.9911   10.5355 C.ar    1  UNL1        0.0111
     14 C           2.3166   27.5463   10.7695 C.ar    1  UNL1        0.0008
     15 C           1.2420   28.3940   10.5182 C.ar    1  UNL1       -0.0002
     16 C           1.4691   29.6901   10.0495 C.ar    1  UNL1       -0.0021
     17 C           2.7766   30.1665    9.8286 C.ar    1  UNL1        0.0045
@<TRIPOS>BOND
     1    11    12    1
     2    12    13   ar
     3    12    17   ar
     4    13    14   ar
     5    14    15   ar
     6    15    16   ar
     7    16    17   ar
     8    17    10    1
     9    10     1    1
    10     1     2    1
    11     1     9    1
    12     2     3    1
    13     3     4    1
    14     4     5   ar
    15     4     8   ar
    16     5     6   ar
    17     6     7   ar
    18     7     8   ar
    19     8     9    1
#	Name:			CHEMBL83668
#	Creating user name:	trannguyen
#	Creation time:		Tue Feb  8 18:26:14 2022


#	Modifying user name:	trannguyen
#	Modification time:	Tue Feb  8 18:26:14 2022

@<TRIPOS>MOLECULE
CHEMBL83668
 22 24 0 0 0
SMALL
GASTEIGER

@<TRIPOS>ATOM
      1 C           7.8232   31.6932    7.9346 C.2     1  UNL1        0.2412
      2 S           9.2374   30.8004    7.8398 S.2     1  UNL1        0.0068
      3 N           7.3535   32.5844    6.9537 N.am    1  UNL1       -0.2511
      4 C           7.9038   33.9446    6.9290 C.3     1  UNL1        0.1207
      5 C           2.6199   32.3034    5.2836 C.3     1  UNL1        0.0311
      6 C           4.0923   32.1264    5.0494 C.ar    1  UNL1       -0.0206
      7 C           4.5519   31.5309    3.8763 C.ar    1  UNL1       -0.0042
      8 C           5.9128   31.3182    3.7004 C.ar    1  UNL1        0.0010
      9 C           6.8159   31.6587    4.7142 C.ar    1  UNL1        0.0149
     10 C           6.3921   32.2351    5.9262 C.ar    1  UNL1        0.0542
     11 C           5.0169   32.4941    6.0459 C.ar    1  UNL1        0.0107
     12 O           6.9401   31.5138    9.0242 O.3     1  UNL1       -0.4337
     13 C           5.6330   31.0136    9.3647 C.ar    1  UNL1        0.1475
     14 C           4.6009   31.9417    9.2458 C.ar    1  UNL1        0.0376
     15 C           3.2851   31.5337    9.4598 C.ar    1  UNL1        0.0031
     16 C           2.9955   30.1977    9.7916 C.ar    1  UNL1        0.0002
     17 C           1.6789   29.7455    9.9630 C.ar    1  UNL1        0.0000
     18 C           1.4184   28.4122   10.2833 C.ar    1  UNL1        0.0000
     19 C           2.4665   27.5133   10.4480 C.ar    1  UNL1        0.0000
     20 C           3.7832   27.9447   10.2827 C.ar    1  UNL1        0.0001
     21 C           4.0619   29.2780    9.9464 C.ar    1  UNL1        0.0030
     22 C           5.3798   29.7004    9.7411 C.ar    1  UNL1        0.0376
@<TRIPOS>BOND
     1     5     6    1
     2     6     7   ar
     3     6    11   ar
     4     7     8   ar
     5     8     9   ar
     6     9    10   ar
     7    10     3    1
     8    10    11   ar
     9     3     4    1
    10     3     1    1
    11     1     2    2
    12     1    12    1
    13    12    13    1
    14    13    14   ar
    15    13    22   ar
    16    14    15   ar
    17    15    16   ar
    18    16    17   ar
    19    16    21   ar
    20    17    18   ar
    21    18    19   ar
    22    19    20   ar
    23    20    21   ar
    24    21    22   ar
#	Name:			CHEMBL838
#	Creating user name:	trannguyen
#	Creation time:		Tue Feb  8 18:26:14 2022


#	Modifying user name:	trannguyen
#	Modification time:	Tue Feb  8 18:26:14 2022

@<TRIPOS>MOLECULE
CHEMBL838
 33 35 0 0 0
SMALL
GASTEIGER

@<TRIPOS>ATOM
      1 C           6.1335   32.9878    6.8786 C.3     1  UNL1        0.1327
      2 C           4.5957   32.9147    6.9673 C.3     1  UNL1        0.0298
      3 C           4.0370   32.9295    8.3755 C.3     1  UNL1        0.0295
      4 C           4.3641   31.6015    8.9950 C.ar    1  UNL1       -0.0084
      5 C           3.3258   30.6549    9.1188 C.ar    1  UNL1       -0.0030
      6 C           3.5695   29.3969    9.6571 C.ar    1  UNL1       -0.0002
      7 C           4.8405   29.0908   10.1215 C.ar    1  UNL1        0.0013
      8 C           5.8714   30.0298   10.0204 C.ar    1  UNL1        0.0146
      9 C           5.6672   31.2779    9.4109 C.ar    1  UNL1        0.0504
     10 N           6.7723   32.1713    9.2501 N.am    1  UNL1       -0.2473
     11 C           6.9530   33.0615    8.2000 C.2     1  UNL1        0.2440
     12 O           7.9163   33.8448    8.2426 O.2     1  UNL1       -0.2731
     13 N           6.6448   31.9319    5.9549 N.3     1  UNL1       -0.2835
     14 H           7.3287   31.3673    6.4540 H       1  UNL1        0.1241
     15 C           7.2431   32.3793    4.6672 C.3     1  UNL1        0.1550
     16 C           8.7557   32.7283    4.7347 C.2     1  UNL1        0.3314
     17 O           9.3059   33.4409    3.9152 O.2     1  UNL1       -0.2486
     18 O           9.3545   32.1831    5.8404 O.3     1  UNL1       -0.4476
     19 C          11.3217   32.2364    7.3163 C.3     1  UNL1        0.0513
     20 C          10.7902   32.2287    5.8915 C.3     1  UNL1        0.2086
     21 C           6.5129   33.6262    4.0976 C.3     1  UNL1        0.0318
     22 C           5.4094   33.3336    3.0551 C.3     1  UNL1        0.0283
     23 C           4.0476   32.9500    3.6230 C.ar    1  UNL1       -0.0221
     24 C           3.7238   31.5965    3.8368 C.ar    1  UNL1       -0.0043
     25 C           2.4783   31.2241    4.3628 C.ar    1  UNL1       -0.0003
     26 C           1.5314   32.1952    4.6747 C.ar    1  UNL1       -0.0000
     27 C           1.8227   33.5348    4.4409 C.ar    1  UNL1       -0.0003
     28 C           3.0627   33.9056    3.9095 C.ar    1  UNL1       -0.0043
     29 C           7.7344   32.2630   10.3749 C.3     1  UNL1        0.2078
     30 C           7.1810   32.7722   11.6959 C.2     1  UNL1        0.3347
     31 O           7.3142   32.1698   12.7614 O.2     1  UNL1       -0.2484
     32 O           6.4416   33.9045   11.6121 O.3     1  UNL1       -0.4790
     33 H           6.3055   34.2166   10.6882 H       1  UNL1        0.2951
@<TRIPOS>BOND
     1    19    20    1
     2    20    18    1
     3    18    16    1
     4    16    17    2
     5    15    21    1
     6    15    13    1
     7    15    16    1
     8    21    22    1
     9    22    23    1
    10    23    24   ar
    11    23    28   ar
    12    24    25   ar
    13    25    26   ar
    14    26    27   ar
    15    27    28   ar
    16    13     1    1
    17    13    14    1
    18     1     2    1
    19     1    11    1
    20     2     3    1
    21     3     4    1
    22     4     5   ar
    23     4     9   ar
    24     5     6   ar
    25     6     7   ar
    26     7     8   ar
    27     8     9   ar
    28     9    10    1
    29    10    29    1
    30    10    11   am
    31    29    30    1
    32    30    31    2
    33    30    32    1
    34    32    33    1
    35    11    12    2
#	Name:			CHEMBL83
#	Creating user name:	trannguyen
#	Creation time:		Tue Feb  8 18:26:14 2022


#	Modifying user name:	trannguyen
#	Modification time:	Tue Feb  8 18:26:14 2022

@<TRIPOS>MOLECULE
CHEMBL83
 28 30 0 0 0
SMALL
GASTEIGER

@<TRIPOS>ATOM
      1 C           5.9516   32.5861    6.6651 C.2     1  UNL1       -0.0222
      2 C           5.4344   32.4985    5.4138 C.2     1  UNL1       -0.0040
      3 C           3.9729   32.6480    5.1789 C.ar    1  UNL1       -0.0003
      4 C           3.1046   31.5641    5.3546 C.ar    1  UNL1       -0.0000
      5 C           1.7437   31.6956    5.0686 C.ar    1  UNL1       -0.0000
      6 C           1.2423   32.9093    4.5994 C.ar    1  UNL1       -0.0000
      7 C           2.0995   33.9943    4.4217 C.ar    1  UNL1       -0.0000
      8 C           3.4600   33.8652    4.7100 C.ar    1  UNL1       -0.0000
      9 C           6.3176   32.2058    4.2554 C.ar    1  UNL1       -0.0001
     10 C           7.1870   33.1972    3.7860 C.ar    1  UNL1        0.0031
     11 C           8.0202   32.9402    2.6989 C.ar    1  UNL1        0.0369
     12 C           7.9792   31.7016    2.0608 C.ar    1  UNL1        0.1386
     13 C           7.1409   30.6963    2.5466 C.ar    1  UNL1        0.0369
     14 C           6.3095   30.9502    3.6412 C.ar    1  UNL1        0.0031
     15 O           8.8115   31.5824    0.9832 O.3     1  UNL1       -0.4740
     16 C           8.7944   32.6876    0.0739 C.3     1  UNL1        0.2226
     17 C           7.7315   32.4025   -0.9999 C.3     1  UNL1        0.1201
     18 N           7.0116   33.5931   -1.4931 N.3     1  UNL1       -0.2672
     19 C           6.7344   34.4996   -0.3745 C.3     1  UNL1        0.0898
     20 C           7.7598   34.3045   -2.5295 C.3     1  UNL1        0.0898
     21 C           7.4192   32.5216    6.9124 C.ar    1  UNL1       -0.0040
     22 C           8.0836   31.2907    6.9405 C.ar    1  UNL1       -0.0003
     23 C           9.4650   31.2327    7.1456 C.ar    1  UNL1       -0.0000
     24 C          10.1978   32.4057    7.3219 C.ar    1  UNL1       -0.0000
     25 C           9.5481   33.6385    7.2972 C.ar    1  UNL1       -0.0000
     26 C           8.1656   33.6977    7.0942 C.ar    1  UNL1       -0.0003
     27 C           4.9077   31.5127    8.7200 C.3     1  UNL1        0.0050
     28 C           5.1326   32.7991    7.9289 C.3     1  UNL1        0.0264
@<TRIPOS>BOND
     1    27    28    1
     2    28     1    1
     3     1     2    2
     4     1    21    1
     5     2     3    1
     6     2     9    1
     7     3     4   ar
     8     3     8   ar
     9     4     5   ar
    10     5     6   ar
    11     6     7   ar
    12     7     8   ar
    13     9    10   ar
    14     9    14   ar
    15    10    11   ar
    16    11    12   ar
    17    12    15    1
    18    12    13   ar
    19    15    16    1
    20    16    17    1
    21    17    18    1
    22    18    19    1
    23    18    20    1
    24    13    14   ar
    25    21    22   ar
    26    21    26   ar
    27    22    23   ar
    28    23    24   ar
    29    24    25   ar
    30    25    26   ar
#	Name:			CHEMBL84158
#	Creating user name:	trannguyen
#	Creation time:		Tue Feb  8 18:26:14 2022


#	Modifying user name:	trannguyen
#	Modification time:	Tue Feb  8 18:26:14 2022

@<TRIPOS>MOLECULE
CHEMBL84158
 23 23 0 0 0
SMALL
GASTEIGER

@<TRIPOS>ATOM
      1 C           3.8359   31.0938    9.1548 C.ar    1  UNL1        0.0885
      2 C           2.8727   30.1708    9.5976 C.ar    1  UNL1        0.0259
      3 C           3.2516   29.0635   10.3575 C.ar    1  UNL1        0.1061
      4 C           4.5933   28.8474   10.6662 C.ar    1  UNL1        0.0215
      5 C           5.5552   29.7537   10.2170 C.ar    1  UNL1        0.0384
      6 C           5.1913   30.8759    9.4539 C.ar    1  UNL1        0.1431
      7 N           3.8281   32.4103    7.0868 N.am    1  UNL1       -0.2994
      8 C           3.3187   32.2480    8.3556 C.2     1  UNL1        0.2489
      9 O           2.5197   33.0250    8.8658 O.2     1  UNL1       -0.2700
     10 H           4.4188   31.6808    6.7046 H       1  UNL1        0.1498
     11 C           3.4402   33.5201    6.2296 C.3     1  UNL1        0.1070
     12 C           3.8125   33.2739    4.7506 C.3     1  UNL1        0.0936
     13 N           4.4987   31.9853    4.4492 N.3     1  UNL1       -0.2712
     14 C           2.2427   31.6642    3.3025 C.3     1  UNL1        0.0188
     15 C           3.5550   31.0467    3.7964 C.3     1  UNL1        0.0722
     16 C           5.6703   32.2510    3.5779 C.3     1  UNL1        0.0722
     17 C           7.0505   32.0935    4.2097 C.3     1  UNL1        0.0188
     18 S           2.0574   27.9060   10.9800 S.O2    1  UNL1        0.0105
     19 C           0.4738   28.4685   10.4187 C.3     1  UNL1        0.1816
     20 O           2.3390   26.6394   10.3213 O.2     1  UNL1       -0.1686
     21 O           2.0843   28.0242   12.4218 O.2     1  UNL1       -0.1686
     22 O           6.1131   31.7863    9.0018 O.3     1  UNL1       -0.4713
     23 C           7.4232   31.6380    9.5476 C.3     1  UNL1        0.2525
@<TRIPOS>BOND
     1    14    15    1
     2    15    13    1
     3    13    16    1
     4    13    12    1
     5    16    17    1
     6    12    11    1
     7    11     7    1
     8     7     8   am
     9     7    10    1
    10     8     9    2
    11     8     1    1
    12     1     2   ar
    13     1     6   ar
    14     2     3   ar
    15     3    18    1
    16     3     4   ar
    17    18    19    1
    18    18    20    2
    19    18    21    2
    20     4     5   ar
    21     5     6   ar
    22     6    22    1
    23    22    23    1
#	Name:			CHEMBL841
#	Creating user name:	trannguyen
#	Creation time:		Tue Feb  8 18:26:14 2022


#	Modifying user name:	trannguyen
#	Modification time:	Tue Feb  8 18:26:14 2022

@<TRIPOS>MOLECULE
CHEMBL841
 35 38 0 0 0
SMALL
GASTEIGER

@<TRIPOS>ATOM
      1 C           5.5950   32.5252    8.2921 C.3     1  UNL1        0.1078
      2 C           7.0565   32.1951    7.8494 C.ar    1  UNL1       -0.0108
      3 C           7.5690   30.8816    7.8492 C.ar    1  UNL1       -0.0035
      4 C           8.8951   30.6029    7.5061 C.ar    1  UNL1       -0.0003
      5 C           9.7677   31.6386    7.2049 C.ar    1  UNL1       -0.0000
      6 C           9.3027   32.9502    7.2151 C.ar    1  UNL1       -0.0003
      7 C           7.9636   33.2252    7.5241 C.ar    1  UNL1       -0.0035
      8 C           4.7792   31.3353    8.9344 C.ar    1  UNL1       -0.0108
      9 C           3.3649   31.3966    8.9733 C.ar    1  UNL1       -0.0035
     10 C           2.5945   30.4131    9.6051 C.ar    1  UNL1       -0.0003
     11 C           3.2151   29.3452   10.2373 C.ar    1  UNL1       -0.0000
     12 C           4.6024   29.2453   10.2041 C.ar    1  UNL1       -0.0003
     13 C           5.3743   30.2218    9.5552 C.ar    1  UNL1       -0.0035
     14 C           7.1626   32.7846   11.0147 C.3     1  UNL1        0.1149
     15 N           6.2838   33.8108   10.4763 N.am    1  UNL1       -0.2755
     16 C           6.2231   35.0323   11.2741 C.3     1  UNL1        0.1149
     17 C           5.5120   33.7318    9.3167 C.2     1  UNL1        0.2325
     18 O           4.7129   34.6608    9.0896 O.2     1  UNL1       -0.2742
     19 C           4.8062   32.9630    6.9619 C.3     1  UNL1        0.0341
     20 C           4.3675   31.8456    5.9678 C.3     1  UNL1        0.0732
     21 N           4.5041   32.2232    4.5357 N.3     1  UNL1       -0.2725
     22 C           5.0980   33.5410    4.2647 C.3     1  UNL1        0.0748
     23 C           6.6210   33.6027    4.3939 C.3     1  UNL1        0.0485
     24 C           7.3328   32.5505    3.5106 C.3     1  UNL1        0.1096
     25 O           8.7177   32.5164    3.9009 O.3     1  UNL1       -0.3826
     26 C           6.7124   31.1838    3.8832 C.3     1  UNL1        0.0485
     27 C           5.1869   31.1888    3.7375 C.3     1  UNL1        0.0748
     28 H           8.7497   32.4076    4.8659 H       1  UNL1        0.2107
     29 C           7.3931   32.8677    2.0039 C.ar    1  UNL1        0.0019
     30 C           7.8037   31.9013    1.0623 C.ar    1  UNL1       -0.0012
     31 C           7.8214   32.1695   -0.3150 C.ar    1  UNL1        0.0111
     32 C           7.4013   33.4056   -0.7875 C.ar    1  UNL1        0.0577
     33 CL          7.4198   33.7352   -2.4759 Cl      1  UNL1       -0.0822
     34 C           6.9459   34.3667    0.1047 C.ar    1  UNL1        0.0111
     35 C           6.9330   34.0945    1.4811 C.ar    1  UNL1       -0.0012
@<TRIPOS>BOND
     1    14    15    1
     2    15    16    1
     3    15    17   am
     4    17    18    2
     5    17     1    1
     6     1    19    1
     7     1     2    1
     8     1     8    1
     9    19    20    1
    10    20    21    1
    11    21    22    1
    12    21    27    1
    13    22    23    1
    14    23    24    1
    15    24    25    1
    16    24    29    1
    17    24    26    1
    18    25    28    1
    19    29    30   ar
    20    29    35   ar
    21    30    31   ar
    22    31    32   ar
    23    32    33    1
    24    32    34   ar
    25    34    35   ar
    26    26    27    1
    27     2     3   ar
    28     2     7   ar
    29     3     4   ar
    30     4     5   ar
    31     5     6   ar
    32     6     7   ar
    33     8     9   ar
    34     8    13   ar
    35     9    10   ar
    36    10    11   ar
    37    11    12   ar
    38    12    13   ar
#	Name:			CHEMBL844
#	Creating user name:	trannguyen
#	Creation time:		Tue Feb  8 18:26:14 2022


#	Modifying user name:	trannguyen
#	Modification time:	Tue Feb  8 18:26:14 2022

@<TRIPOS>MOLECULE
CHEMBL844
 19 21 0 0 0
SMALL
GASTEIGER

@<TRIPOS>ATOM
      1 BR          5.1406   31.4998    8.7906 Br      1  UNL1       -0.0446
      2 C           3.2595   31.1372    8.9168 C.ar    1  UNL1        0.0822
      3 C           2.3564   32.0221    8.2878 C.ar    1  UNL1        0.1162
      4 C           0.9963   31.7340    8.3965 C.ar    1  UNL1        0.0334
      5 C           0.5570   30.6203    9.1128 C.ar    1  UNL1        0.0234
      6 C           1.4464   29.7596    9.7319 C.ar    1  UNL1        0.0996
      7 N           0.9477   28.6995   10.3974 N.ar    1  UNL1       -0.2407
      8 C           1.8397   27.8788   10.9870 C.ar    1  UNL1        0.1195
      9 C           3.1947   28.1059   10.9182 C.ar    1  UNL1        0.1195
     10 N           3.7104   29.1609   10.2530 N.ar    1  UNL1       -0.2401
     11 C           2.8376   30.0088    9.6447 C.ar    1  UNL1        0.1077
     12 N           2.8233   33.1281    7.5417 N.pl3   1  UNL1       -0.2046
     13 H           2.5316   34.0180    7.9308 H       1  UNL1        0.2512
     14 C           3.0561   33.1628    6.2036 C.cat   1  UNL1        0.3709
     15 N           3.3255   32.1873    5.3832 N.2     1  UNL1       -0.0977
     16 C           3.4409   32.8360    4.0525 C.3     1  UNL1        0.2596
     17 C           3.5008   34.3406    4.3152 C.3     1  UNL1        0.2107
     18 N           2.9990   34.4205    5.6725 N.pl3   1  UNL1       -0.2215
     19 H           3.4391   35.1327    6.2434 H       1  UNL1        0.2454
@<TRIPOS>BOND
     1     1     2    1
     2     2     3   ar
     3     2    11   ar
     4     3    12    1
     5     3     4   ar
     6    12    14    1
     7    12    13    1
     8    14    15    2
     9    14    18    1
    10    15    16    1
    11    16    17    1
    12    17    18    1
    13    18    19    1
    14     4     5   ar
    15     5     6   ar
    16     6     7   ar
    17     6    11   ar
    18     7     8   ar
    19     8     9   ar
    20     9    10   ar
    21    10    11   ar
#	Name:			CHEMBL84
#	Creating user name:	trannguyen
#	Creation time:		Tue Feb  8 18:26:14 2022


#	Modifying user name:	trannguyen
#	Modification time:	Tue Feb  8 18:26:14 2022

@<TRIPOS>MOLECULE
CHEMBL84
 33 37 0 0 0
SMALL
GASTEIGER

@<TRIPOS>ATOM
      1 C           3.2663   32.9105    5.9911 C.3     1  UNL1        0.1961
      2 O           2.9866   34.2377    6.4845 O.3     1  UNL1       -0.3728
      3 C           1.9338   32.1124    6.0835 C.2     1  UNL1        0.3455
      4 O           1.1115   32.1042    5.1689 O.2     1  UNL1       -0.2471
      5 O           1.6516   31.4752    7.2451 O.3     1  UNL1       -0.4415
      6 C           2.4760   31.6202    8.4122 C.3     1  UNL1        0.2396
      7 C           3.9162   31.7886    8.0887 C.ar    1  UNL1        0.0762
      8 C           4.3084   32.3530    6.9219 C.ar    1  UNL1        0.0175
      9 C           5.7474   32.4887    6.6514 C.ar    1  UNL1        0.0172
     10 C           6.6266   32.0647    7.5599 C.ar    1  UNL1        0.0799
     11 N           6.2094   31.5427    8.7587 N.ar    1  UNL1       -0.2900
     12 C           4.8923   31.3616    9.1211 C.ar    1  UNL1        0.2604
     13 O           4.5310   30.8999   10.1980 O.2     1  UNL1       -0.2672
     14 C           7.3382   31.2210    9.6330 C.3     1  UNL1        0.1373
     15 C           8.5019   31.5474    8.7635 C.ar    1  UNL1        0.0196
     16 C           9.8455   31.3963    9.0004 C.ar    1  UNL1        0.0005
     17 C          10.7634   31.7107    7.9757 C.ar    1  UNL1        0.0177
     18 C          12.1756   31.5628    8.1223 C.ar    1  UNL1        0.0290
     19 C          12.9945   31.8892    7.0299 C.ar    1  UNL1        0.1310
     20 O          14.3560   31.7736    7.0858 O.3     1  UNL1       -0.5058
     21 C          12.4590   32.3450    5.8325 C.ar    1  UNL1        0.0379
     22 C          11.0778   32.4865    5.7009 C.ar    1  UNL1        0.0222
     23 C          10.2127   32.1877    6.7403 C.ar    1  UNL1        0.0812
     24 N           8.8913   32.3605    6.5203 N.ar    1  UNL1       -0.2442
     25 C           8.0878   32.0397    7.5401 C.ar    1  UNL1        0.0949
     26 H           2.2844   34.6080    5.9191 H       1  UNL1        0.2114
     27 H          14.5735   31.1818    7.8350 H       1  UNL1        0.2922
     28 C           4.0876   31.7809    3.7999 C.3     1  UNL1        0.0034
     29 C           3.6807   33.0674    4.5065 C.3     1  UNL1        0.0422
     30 C          12.8061   31.1121    9.4312 C.3     1  UNL1        0.1023
     31 N          14.0833   30.3772    9.2910 N.3     1  UNL1       -0.2664
     32 C          14.8539   30.5420   10.5361 C.3     1  UNL1        0.0899
     33 C          13.8627   28.9389    9.0733 C.3     1  UNL1        0.0899
@<TRIPOS>BOND
     1    28    29    1
     2     1    29    1
     3     1     2    1
     4     1     3    1
     5     1     8    1
     6     2    26    1
     7     3     4    2
     8     3     5    1
     9     5     6    1
    10     6     7    1
    11     7     8   ar
    12     7    12   ar
    13     8     9   ar
    14     9    10   ar
    15    10    11   ar
    16    10    25    1
    17    11    12   ar
    18    11    14    1
    19    12    13    2
    20    14    15    1
    21    15    16   ar
    22    15    25   ar
    23    16    17   ar
    24    17    18   ar
    25    17    23   ar
    26    18    30    1
    27    18    19   ar
    28    30    31    1
    29    31    32    1
    30    31    33    1
    31    19    20    1
    32    19    21   ar
    33    20    27    1
    34    21    22   ar
    35    22    23   ar
    36    23    24   ar
    37    24    25   ar
#	Name:			CHEMBL850
#	Creating user name:	trannguyen
#	Creation time:		Tue Feb  8 18:26:14 2022


#	Modifying user name:	trannguyen
#	Modification time:	Tue Feb  8 18:26:14 2022

@<TRIPOS>MOLECULE
CHEMBL850
 32 35 0 0 0
SMALL
GASTEIGER

@<TRIPOS>ATOM
      1 C           5.3187   33.0620    4.7720 C.ar    1  UNL1        0.1062
      2 C           3.9791   32.8473    4.4063 C.ar    1  UNL1        0.1685
      3 F           3.5844   33.0794    3.1403 F       1  UNL1       -0.2015
      4 C           2.9768   32.4609    5.3201 C.ar    1  UNL1        0.0752
      5 N           1.6774   32.2022    4.8267 N.pl3   1  UNL1       -0.3551
      6 C           3.3593   32.1287    6.6318 C.ar    1  UNL1        0.0724
      7 C           2.3264   31.7536    7.6443 C.ar    1  UNL1        0.2060
      8 O           1.1206   31.8893    7.4359 O.2     1  UNL1       -0.2862
      9 C           2.7694   31.2816    8.9697 C.ar    1  UNL1        0.1315
     10 C           4.0828   31.3260    9.2197 C.ar    1  UNL1        0.0856
     11 N           5.0665   31.7413    8.3432 N.ar    1  UNL1       -0.3258
     12 C           4.7083   32.2049    7.0369 C.ar    1  UNL1        0.0933
     13 C           5.6418   32.7312    6.1121 C.ar    1  UNL1        0.1713
     14 F           6.9117   32.9136    6.5177 F       1  UNL1       -0.2013
     15 H           1.4405   32.7616    4.0099 H       1  UNL1        0.1424
     16 H           0.9557   32.2263    5.5533 H       1  UNL1        0.1424
     17 C           7.9401   31.6162    2.0177 C.3     1  UNL1        0.0189
     18 C           7.5574   33.0865    1.8022 C.3     1  UNL1        0.0741
     19 C           6.1602   33.3884    2.4202 C.3     1  UNL1        0.1066
     20 N           6.2955   33.5044    3.8827 N.pl3   1  UNL1       -0.3012
     21 C           7.1865   34.6202    4.2546 C.3     1  UNL1        0.1066
     22 C           8.6037   34.3858    3.6592 C.3     1  UNL1        0.0741
     23 C           9.3854   33.4058    4.5386 C.3     1  UNL1        0.0189
     24 N           8.6348   34.0076    2.2278 N.3     1  UNL1       -0.2969
     25 H           9.5442   33.6152    1.9888 H       1  UNL1        0.1233
     26 C           1.8571   30.8120   10.0274 C.2     1  UNL1        0.3427
     27 O           2.2287   30.1440   10.9900 O.2     1  UNL1       -0.2449
     28 O           0.5782   31.2084    9.8783 O.3     1  UNL1       -0.4770
     29 H           0.4045   31.6705    9.0223 H       1  UNL1        0.2954
     30 C           6.4733   31.5312    8.7482 C.3     1  UNL1        0.0857
     31 C           7.1622   32.4231    9.7610 C.3     1  UNL1        0.0245
     32 C           6.8371   31.0087   10.1175 C.3     1  UNL1        0.0245
@<TRIPOS>BOND
     1    17    18    1
     2    18    19    1
     3    18    24    1
     4    19    20    1
     5    20     1    1
     6    20    21    1
     7     1     2   ar
     8     1    13   ar
     9     2     3    1
    10     2     4   ar
    11     4     5    1
    12     4     6   ar
    13     5    15    1
    14     5    16    1
    15     6     7   ar
    16     6    12   ar
    17     7     8    2
    18     7     9   ar
    19     9    26    1
    20     9    10   ar
    21    26    27    2
    22    26    28    1
    23    28    29    1
    24    10    11   ar
    25    11    30    1
    26    11    12   ar
    27    30    31    1
    28    30    32    1
    29    31    32    1
    30    12    13   ar
    31    13    14    1
    32    21    22    1
    33    22    24    1
    34    22    23    1
    35    24    25    1
#	Name:			CHEMBL852
#	Creating user name:	trannguyen
#	Creation time:		Tue Feb  8 18:26:14 2022


#	Modifying user name:	trannguyen
#	Modification time:	Tue Feb  8 18:26:14 2022

@<TRIPOS>MOLECULE
CHEMBL852
 22 22 0 0 0
SMALL
GASTEIGER

@<TRIPOS>ATOM
      1 C           2.3283   30.7456    9.2256 C.ar    1  UNL1       -0.0202
      2 C           1.5560   30.8213    8.0653 C.ar    1  UNL1       -0.0029
      3 C           2.0598   31.4323    6.8952 C.ar    1  UNL1        0.0142
      4 C           3.3654   31.9485    6.8156 C.ar    1  UNL1        0.0479
      5 C           4.1201   31.8151    7.9951 C.ar    1  UNL1        0.0142
      6 C           3.6099   31.2787    9.1824 C.ar    1  UNL1       -0.0029
      7 C           1.8094   30.1171   10.5036 C.3     1  UNL1        0.0532
      8 N          -0.2512   28.6414   10.4624 N.3     1  UNL1       -0.3131
      9 CA          1.2386   28.7256   10.2997 C.3     1  UNL1        0.1553
     10 H1         -0.6666   29.1897    9.7060 H       1  UNL1        0.1193
     11 H2         -0.4810   29.1920   11.3024 H       1  UNL1        0.1193
     12 C           1.8732   27.6908   11.2454 C.2     1  UNL1        0.3283
     13 O           2.0971   27.8629   12.4317 O.2     1  UNL1       -0.2488
     14 OXT         2.2137   26.5456   10.5547 O.3     1  UNL1       -0.4793
     15 HXT         1.8702   26.6617    9.6453 H       1  UNL1        0.2951
     16 N           3.8803   32.5822    5.6747 N.pl3   1  UNL1       -0.3049
     17 C           2.9526   33.2802    4.7469 C.3     1  UNL1        0.1083
     18 C           2.6677   32.5401    3.4268 C.3     1  UNL1        0.1162
     19 CL          3.0480   30.8051    3.5274 Cl      1  UNL1       -0.1118
     20 C           5.3067   32.9982    5.6134 C.3     1  UNL1        0.1083
     21 C           6.1674   31.9951    4.8400 C.3     1  UNL1        0.1162
     22 CL          6.2760   32.4477    3.1143 Cl      1  UNL1       -0.1118
@<TRIPOS>BOND
     1     8     9    1
     2     8    10    1
     3     8    11    1
     4     9     7    1
     5     9    12    1
     6     7     1    1
     7     1     2   ar
     8     1     6   ar
     9     2     3   ar
    10     3     4   ar
    11     4    16    1
    12     4     5   ar
    13    16    17    1
    14    16    20    1
    15    17    18    1
    16    18    19    1
    17    20    21    1
    18    21    22    1
    19     5     6   ar
    20    12    13    2
    21    12    14    1
    22    14    15    1
#	Name:			CHEMBL856
#	Creating user name:	trannguyen
#	Creation time:		Tue Feb  8 18:26:14 2022


#	Modifying user name:	trannguyen
#	Modification time:	Tue Feb  8 18:26:14 2022

@<TRIPOS>MOLECULE
CHEMBL856
 18 19 0 0 0
SMALL
GASTEIGER

@<TRIPOS>ATOM
      1 C           2.4488   31.9117    8.0453 C.3     1  UNL1        0.1558
      2 C           3.0831   33.3216    7.9042 C.2     1  UNL1        0.2349
      3 O           3.8193   33.6770    6.9878 O.2     1  UNL1       -0.2742
      4 N           2.8483   34.2029    8.9279 N.am    1  UNL1       -0.2870
      5 C           2.1289   33.8169   10.0896 C.3     1  UNL1        0.1858
      6 N           0.9819   33.0847    9.6857 N.am    1  UNL1       -0.2870
      7 C           1.0633   32.1068    8.7301 C.2     1  UNL1        0.2349
      8 O           0.0733   31.4105    8.5099 O.2     1  UNL1       -0.2742
      9 H           3.3429   35.0842    8.8828 H       1  UNL1        0.1510
     10 H           0.1108   33.1434   10.1968 H       1  UNL1        0.1510
     11 C           3.3406   30.9712    8.8968 C.ar    1  UNL1       -0.0064
     12 C           4.7274   31.1867    9.0095 C.ar    1  UNL1       -0.0034
     13 C           5.5314   30.3368    9.7741 C.ar    1  UNL1       -0.0003
     14 C           4.9689   29.2526   10.4400 C.ar    1  UNL1       -0.0000
     15 C           3.6046   29.0067   10.3273 C.ar    1  UNL1       -0.0003
     16 C           2.8007   29.8486    9.5541 C.ar    1  UNL1       -0.0034
     17 C           1.6453   32.1785    5.5433 C.3     1  UNL1        0.0013
     18 C           2.1773   31.2725    6.6510 C.3     1  UNL1        0.0215
@<TRIPOS>BOND
     1    17    18    1
     2    18     1    1
     3     1    11    1
     4     1     2    1
     5     1     7    1
     6    11    12   ar
     7    11    16   ar
     8    12    13   ar
     9    13    14   ar
    10    14    15   ar
    11    15    16   ar
    12     2     3    2
    13     2     4   am
    14     4     5    1
    15     4     9    1
    16     5     6    1
    17     6     7   am
    18     6    10    1
    19     7     8    2
#	Name:			CHEMBL85728
#	Creating user name:	trannguyen
#	Creation time:		Tue Feb  8 18:26:14 2022


#	Modifying user name:	trannguyen
#	Modification time:	Tue Feb  8 18:26:14 2022

@<TRIPOS>MOLECULE
CHEMBL85728
 19 20 0 0 0
SMALL
GASTEIGER

@<TRIPOS>ATOM
      1 C           1.7405   31.8631    8.0745 C.3     1  UNL1        0.0526
      2 N           5.0811   31.6575    3.4166 N.pl3   1  UNL1       -0.3570
      3 C           4.2278   31.7847    4.5204 C.ar    1  UNL1        0.0415
      4 C           3.0120   31.1013    4.5529 C.ar    1  UNL1        0.0138
      5 C           2.2018   31.1330    5.6927 C.ar    1  UNL1       -0.0027
      6 C           2.6140   31.8229    6.8402 C.ar    1  UNL1       -0.0177
      7 C           3.8699   32.4413    6.8329 C.ar    1  UNL1       -0.0027
      8 C           4.6764   32.4017    5.6901 C.ar    1  UNL1        0.0138
      9 H           4.5865   31.5011    2.5437 H       1  UNL1        0.1424
     10 H           5.7573   32.4110    3.3406 H       1  UNL1        0.1424
     11 C           1.8694   30.6558    8.9780 C.ar    1  UNL1       -0.0177
     12 C           3.1170   30.2753    9.4859 C.ar    1  UNL1       -0.0027
     13 C           3.2331   29.1726   10.3399 C.ar    1  UNL1        0.0138
     14 C           2.1144   28.4055   10.6728 C.ar    1  UNL1        0.0415
     15 N           2.2187   27.3807   11.6223 N.pl3   1  UNL1       -0.3570
     16 C           0.8623   28.8265   10.2246 C.ar    1  UNL1        0.0138
     17 C           0.7386   29.9256    9.3680 C.ar    1  UNL1       -0.0027
     18 H           3.1301   26.9339   11.6360 H       1  UNL1        0.1424
     19 H           1.4629   26.7046   11.5701 H       1  UNL1        0.1424
@<TRIPOS>BOND
     1     2     3    1
     2     2     9    1
     3     2    10    1
     4     3     4   ar
     5     3     8   ar
     6     4     5   ar
     7     5     6   ar
     8     6     1    1
     9     6     7   ar
    10     1    11    1
    11    11    12   ar
    12    11    17   ar
    13    12    13   ar
    14    13    14   ar
    15    14    15    1
    16    14    16   ar
    17    15    18    1
    18    15    19    1
    19    16    17   ar
    20     7     8   ar
#	Name:			CHEMBL85
#	Creating user name:	trannguyen
#	Creation time:		Tue Feb  8 18:26:14 2022


#	Modifying user name:	trannguyen
#	Modification time:	Tue Feb  8 18:26:14 2022

@<TRIPOS>MOLECULE
CHEMBL85
 30 34 0 0 0
SMALL
GASTEIGER

@<TRIPOS>ATOM
      1 N           5.9330   33.5156    5.6007 N.3     1  UNL1       -0.2724
      2 C           7.2946   33.9240    5.2256 C.3     1  UNL1        0.0725
      3 C           8.0562   32.8696    4.4198 C.3     1  UNL1        0.0234
      4 C           7.2900   32.4436    3.1591 C.3     1  UNL1        0.0464
      5 C           5.8274   32.1128    3.5042 C.3     1  UNL1        0.0234
      6 C           5.1604   33.1726    4.3935 C.3     1  UNL1        0.0725
      7 C           7.4383   33.4410    2.0370 C.ar    1  UNL1        0.1003
      8 N           7.4689   34.7591    2.2811 N.ar    1  UNL1       -0.0814
      9 O           7.6098   35.3789    1.0577 O.2     1  UNL1       -0.3536
     10 C           7.6648   34.4423    0.0787 C.ar    1  UNL1        0.1787
     11 C           7.8017   34.6950   -1.2806 C.ar    1  UNL1        0.0698
     12 C           7.8346   33.5688   -2.0973 C.ar    1  UNL1        0.1433
     13 F           7.9633   33.7336   -3.4208 F       1  UNL1       -0.2041
     14 C           7.7380   32.2750   -1.5841 C.ar    1  UNL1        0.0299
     15 C           7.6007   32.0583   -0.2042 C.ar    1  UNL1        0.0067
     16 C           7.5623   33.1809    0.6428 C.ar    1  UNL1        0.0540
     17 C           5.8615   32.4382    6.6035 C.3     1  UNL1        0.0770
     18 C           5.4003   32.8955    7.9990 C.3     1  UNL1        0.0497
     19 C           6.9400   30.9378    9.7456 C.3     1  UNL1        0.0520
     20 C           5.4466   30.8807    9.5568 C.ar    1  UNL1        0.0613
     21 N           4.8327   29.8704   10.2494 N.ar    1  UNL1       -0.2368
     22 C           3.5607   29.6955   10.0979 C.ar    1  UNL1        0.1220
     23 N           2.7800   30.4647    9.2746 N.ar    1  UNL1       -0.2843
     24 C           3.3194   31.5788    8.6534 C.ar    1  UNL1        0.2588
     25 O           2.6441   32.4103    8.0387 O.2     1  UNL1       -0.2673
     26 C           4.7878   31.7557    8.7750 C.ar    1  UNL1        0.0489
     27 C           1.3318   30.3173    9.1966 C.3     1  UNL1        0.1102
     28 C           0.8246   28.9485    9.6117 C.3     1  UNL1        0.0251
     29 C           1.4269   28.5880   10.9555 C.3     1  UNL1        0.0099
     30 C           2.9353   28.5156   10.8219 C.3     1  UNL1        0.0641
@<TRIPOS>BOND
     1    19    20    1
     2    20    21   ar
     3    20    26   ar
     4    21    22   ar
     5    22    23   ar
     6    22    30    1
     7    23    24   ar
     8    23    27    1
     9    24    25    2
    10    24    26   ar
    11    26    18    1
    12    18    17    1
    13    17     1    1
    14     1     2    1
    15     1     6    1
    16     2     3    1
    17     3     4    1
    18     4     7    1
    19     4     5    1
    20     7     8   ar
    21     7    16   ar
    22     8     9   ar
    23     9    10   ar
    24    10    11   ar
    25    10    16   ar
    26    11    12   ar
    27    12    13    1
    28    12    14   ar
    29    14    15   ar
    30    15    16   ar
    31     5     6    1
    32    27    28    1
    33    28    29    1
    34    29    30    1
#	Name:			CHEMBL862
#	Creating user name:	trannguyen
#	Creation time:		Tue Feb  8 18:26:14 2022


#	Modifying user name:	trannguyen
#	Modification time:	Tue Feb  8 18:26:14 2022

@<TRIPOS>MOLECULE
CHEMBL862
 19 19 0 0 0
SMALL
GASTEIGER

@<TRIPOS>ATOM
      1 N           2.7593   32.9576    7.1950 N.am    1  UNL1       -0.1742
      2 C           2.0244   31.8523    7.5848 C.2     1  UNL1        0.2888
      3 O           1.4900   31.0792    6.7809 O.2     1  UNL1       -0.2563
      4 H           3.2884   33.4805    7.8792 H       1  UNL1        0.2542
      5 N           3.4391   32.4649    5.1270 N.pl3   1  UNL1       -0.1313
      6 C           3.0109   33.3715    5.9213 C.2     1  UNL1        0.3748
      7 N           2.8058   34.6529    5.5541 N.pl3   1  UNL1       -0.2906
      8 H           3.5871   32.8787    4.2024 H       1  UNL1        0.3060
      9 H           2.6592   34.8607    4.5774 H       1  UNL1        0.2545
     10 H           2.2222   35.1960    6.1914 H       1  UNL1        0.2545
     11 C           1.9753   31.6288    9.0889 C.3     1  UNL1        0.1311
     12 C           2.5702   30.3007    9.5143 C.ar    1  UNL1        0.0096
     13 C           3.9627   30.1177    9.6272 C.ar    1  UNL1        0.0550
     14 CL          5.0841   31.4165    9.4058 Cl      1  UNL1       -0.0825
     15 C           4.5073   28.8708    9.9641 C.ar    1  UNL1        0.0111
     16 C           3.6765   27.7829   10.2110 C.ar    1  UNL1        0.0017
     17 C           2.2976   27.9452   10.1304 C.ar    1  UNL1        0.0111
     18 C           1.7499   29.1868    9.7805 C.ar    1  UNL1        0.0550
     19 CL          0.0234   29.2882    9.7237 Cl      1  UNL1       -0.0825
@<TRIPOS>BOND
     1     5     6    2
     2     5     8    1
     3     6     7    1
     4     6     1    1
     5     7     9    1
     6     7    10    1
     7     1     2   am
     8     1     4    1
     9     2     3    2
    10     2    11    1
    11    11    12    1
    12    12    13   ar
    13    12    18   ar
    14    13    14    1
    15    13    15   ar
    16    15    16   ar
    17    16    17   ar
    18    17    18   ar
    19    18    19    1
#	Name:			CHEMBL86304
#	Creating user name:	trannguyen
#	Creation time:		Tue Feb  8 18:26:14 2022


#	Modifying user name:	trannguyen
#	Modification time:	Tue Feb  8 18:26:14 2022

@<TRIPOS>MOLECULE
CHEMBL86304
 19 20 0 0 0
SMALL
GASTEIGER

@<TRIPOS>ATOM
      1 O           1.1214   31.7945    6.4598 O.2     1  UNL1       -0.2701
      2 C           2.0142   31.7880    7.2941 C.2     1  UNL1        0.2459
      3 N           3.0744   32.6743    7.2861 N.am    1  UNL1       -0.2994
      4 H           3.8739   32.5452    7.8915 H       1  UNL1        0.1498
      5 C           2.0054   30.7807    8.3942 C.ar    1  UNL1        0.0534
      6 C           0.7820   30.1962    8.7615 C.ar    1  UNL1        0.0054
      7 C           0.7320   29.2628    9.8026 C.ar    1  UNL1        0.0115
      8 C           1.9007   28.9209   10.4806 C.ar    1  UNL1        0.0577
      9 CL          1.8445   27.7792   11.7659 Cl      1  UNL1       -0.0822
     10 C           3.1168   29.5064   10.1321 C.ar    1  UNL1        0.0115
     11 C           3.1683   30.4407    9.0938 C.ar    1  UNL1        0.0054
     12 C           3.2068   33.6851    6.2562 C.3     1  UNL1        0.1070
     13 C           4.5272   33.5337    5.4751 C.3     1  UNL1        0.0937
     14 N           4.3810   33.4208    4.0038 N.3     1  UNL1       -0.2670
     15 C           5.6092   32.9262    3.3363 C.3     1  UNL1        0.1047
     16 C           5.9296   31.4513    3.6344 C.3     1  UNL1        0.1595
     17 O           4.8378   30.5977    3.2714 O.3     1  UNL1       -0.3508
     18 C           3.6296   30.9922    3.9333 C.3     1  UNL1        0.1595
     19 C           3.2904   32.4701    3.6545 C.3     1  UNL1        0.1047
@<TRIPOS>BOND
     1     1     2    2
     2     2     3   am
     3     2     5    1
     4     3    12    1
     5     3     4    1
     6    12    13    1
     7    13    14    1
     8    14    15    1
     9    14    19    1
    10    15    16    1
    11    16    17    1
    12    17    18    1
    13    18    19    1
    14     5     6   ar
    15     5    11   ar
    16     6     7   ar
    17     7     8   ar
    18     8     9    1
    19     8    10   ar
    20    10    11   ar
#	Name:			CHEMBL8659
#	Creating user name:	trannguyen
#	Creation time:		Tue Feb  8 18:26:14 2022


#	Modifying user name:	trannguyen
#	Modification time:	Tue Feb  8 18:26:14 2022

@<TRIPOS>MOLECULE
CHEMBL8659
 21 20 0 0 0
SMALL
GASTEIGER

@<TRIPOS>ATOM
      1 C           3.6047   32.3415    4.0357 C.3     1  UNL1        0.0257
      2 C           5.9701   31.3528    3.7715 C.2     1  UNL1       -0.0307
      3 C           4.6610   31.2590    4.0854 C.2     1  UNL1       -0.0307
      4 C           6.7531   32.6009    3.4538 C.3     1  UNL1        0.0257
      5 C           6.8863   33.6647    4.5570 C.3     1  UNL1        0.0047
      6 C           7.0935   33.1210    5.9831 C.3     1  UNL1        0.0003
      7 C           8.4235   32.4120    6.3125 C.3     1  UNL1        0.0000
      8 C           8.4290   31.3741    7.4499 C.3     1  UNL1        0.0000
      9 C           7.0158   31.0150    7.9249 C.3     1  UNL1        0.0000
     10 C           5.5265   30.2629    9.8589 C.3     1  UNL1        0.0000
     11 C           6.7883   30.9913    9.4381 C.3     1  UNL1        0.0000
     12 C           3.0513   32.5316    5.4370 C.3     1  UNL1        0.0047
     13 C           2.3148   31.3503    6.0398 C.3     1  UNL1        0.0003
     14 C           2.6722   31.2585    7.5306 C.3     1  UNL1        0.0000
     15 C           1.4671   31.1233    8.4588 C.3     1  UNL1        0.0006
     16 C           1.2893   29.7605    9.1367 C.3     1  UNL1        0.0116
     17 C           1.8850   29.6736   10.5429 C.3     1  UNL1        0.1094
     18 C           1.4374   28.4125   11.2615 C.2     1  UNL1        0.3138
     19 O           2.0952   27.7760   12.0370 O.2     1  UNL1       -0.2503
     20 O           0.1641   28.0633   10.9197 O.3     1  UNL1       -0.4802
     21 H          -0.2642   28.6640   10.2908 H       1  UNL1        0.2951
@<TRIPOS>BOND
     1    10    11    1
     2    11     9    1
     3     9     8    1
     4     8     7    1
     5     7     6    1
     6     6     5    1
     7     5     4    1
     8     4     2    1
     9     2     3    2
    10     3     1    1
    11     1    12    1
    12    12    13    1
    13    13    14    1
    14    14    15    1
    15    15    16    1
    16    16    17    1
    17    17    18    1
    18    18    19    2
    19    18    20    1
    20    20    21    1
#	Name:			CHEMBL865
#	Creating user name:	trannguyen
#	Creation time:		Tue Feb  8 18:26:14 2022


#	Modifying user name:	trannguyen
#	Modification time:	Tue Feb  8 18:26:14 2022

@<TRIPOS>MOLECULE
CHEMBL865
 24 26 0 0 0
SMALL
GASTEIGER

@<TRIPOS>ATOM
      1 C           6.8816   32.8508   10.2074 C.3     1  UNL1        0.0754
      2 C           6.1652   32.8410    8.9139 C.ar    1  UNL1        0.1547
      3 O           6.6745   33.6728    7.9737 O.2     1  UNL1       -0.3578
      4 N           5.9580   33.5586    6.8118 N.ar    1  UNL1       -0.0774
      5 C           4.9844   32.6591    7.0388 C.ar    1  UNL1        0.1225
      6 C           5.0774   32.1622    8.3899 C.ar    1  UNL1        0.0537
      7 C           4.0361   32.3425    5.9617 C.ar    1  UNL1        0.0209
      8 C           2.6766   32.6668    6.0619 C.ar    1  UNL1        0.0016
      9 C           1.7865   32.3524    5.0309 C.ar    1  UNL1        0.0000
     10 C           2.2506   31.7450    3.8671 C.ar    1  UNL1        0.0000
     11 C           3.6023   31.4372    3.7383 C.ar    1  UNL1        0.0000
     12 C           4.4874   31.7265    4.7812 C.ar    1  UNL1        0.0016
     13 C           4.3396   31.1339    9.1212 C.ar    1  UNL1        0.0043
     14 C           4.9666   29.9468    9.5354 C.ar    1  UNL1        0.0015
     15 C           4.2386   28.9249   10.1498 C.ar    1  UNL1        0.0199
     16 C           2.8767   29.0946   10.3932 C.ar    1  UNL1        0.1217
     17 C           2.2466   30.2958   10.0592 C.ar    1  UNL1        0.0199
     18 C           2.9728   31.2940    9.3981 C.ar    1  UNL1        0.0015
     19 S           1.9647   27.7943   11.1707 S.O2    1  UNL1        0.0572
     20 N           0.3970   28.1096   10.6510 N.3     1  UNL1       -0.2035
     21 O           2.3311   26.5327   10.5651 O.2     1  UNL1       -0.1532
     22 O           1.9625   27.9986   12.5930 O.2     1  UNL1       -0.1532
     23 H           0.0617   27.3367   10.0766 H       1  UNL1        0.1442
     24 H          -0.1992   28.3043   11.4575 H       1  UNL1        0.1442
@<TRIPOS>BOND
     1     1     2    1
     2     2     3   ar
     3     2     6   ar
     4     3     4   ar
     5     4     5   ar
     6     5     7    1
     7     5     6   ar
     8     7     8   ar
     9     7    12   ar
    10     8     9   ar
    11     9    10   ar
    12    10    11   ar
    13    11    12   ar
    14     6    13    1
    15    13    14   ar
    16    13    18   ar
    17    14    15   ar
    18    15    16   ar
    19    16    19    1
    20    16    17   ar
    21    19    20    1
    22    19    21    2
    23    19    22    2
    24    20    23    1
    25    20    24    1
    26    17    18   ar
#	Name:			CHEMBL866
#	Creating user name:	trannguyen
#	Creation time:		Tue Feb  8 18:26:14 2022


#	Modifying user name:	trannguyen
#	Modification time:	Tue Feb  8 18:26:14 2022

@<TRIPOS>MOLECULE
CHEMBL866
 25 26 0 0 0
SMALL
GASTEIGER

@<TRIPOS>ATOM
      1 C           5.7299   32.4485    7.0209 C.ar    1  UNL1        0.1337
      2 C           5.9025   32.6977    5.6286 C.ar    1  UNL1        0.0117
      3 C           7.2232   32.8620    4.9336 C.3     1  UNL1        0.0340
      4 C           4.7511   32.8622    4.8566 C.ar    1  UNL1        0.0294
      5 C           3.5026   32.8170    5.4304 C.ar    1  UNL1        0.1083
      6 C           3.3025   32.6092    6.7839 C.ar    1  UNL1        0.1388
      7 O           2.0366   32.6602    7.3073 O.3     1  UNL1       -0.5055
      8 C           4.4178   32.3720    7.6059 C.ar    1  UNL1        0.0496
      9 C           2.5117   33.0366    4.4004 C.2     1  UNL1        0.3443
     10 O           1.2988   33.0486    4.5966 O.2     1  UNL1       -0.2448
     11 O           3.1654   33.2281    3.2258 O.3     1  UNL1       -0.4404
     12 C           4.5899   33.1576    3.4124 C.3     1  UNL1        0.2355
     13 H           1.4108   32.7716    6.5533 H       1  UNL1        0.2922
     14 C           7.6295   31.3236    8.0024 C.3     1  UNL1        0.2524
     15 O           6.7513   32.4367    7.9418 O.3     1  UNL1       -0.4720
     16 C           4.2284   32.0893    9.0970 C.3     1  UNL1        0.0578
     17 C           3.7159   30.6968    9.4274 C.2     1  UNL1       -0.0297
     18 C           4.3250   29.6425   10.0128 C.2     1  UNL1       -0.0473
     19 C           5.7308   29.6691   10.5607 C.3     1  UNL1        0.0260
     20 C           3.6382   28.2900   10.2111 C.3     1  UNL1        0.0334
     21 C           2.1333   28.1815    9.9594 C.3     1  UNL1        0.1137
     22 C           1.3154   28.0148   11.2162 C.2     1  UNL1        0.3141
     23 O           1.7897   27.7892   12.3198 O.2     1  UNL1       -0.2503
     24 O          -0.0107   28.1722   11.0242 O.3     1  UNL1       -0.4802
     25 H          -0.2650   28.2510   10.0828 H       1  UNL1        0.2951
@<TRIPOS>BOND
     1    14    15    1
     2    15     1    1
     3     1     2   ar
     4     1     8   ar
     5     2     3    1
     6     2     4   ar
     7     4     5   ar
     8     4    12    1
     9     5     6   ar
    10     5     9    1
    11     6     7    1
    12     6     8   ar
    13     7    13    1
    14     8    16    1
    15    16    17    1
    16    17    18    2
    17    18    19    1
    18    18    20    1
    19    20    21    1
    20    21    22    1
    21    22    23    2
    22    22    24    1
    23    24    25    1
    24     9    10    2
    25     9    11    1
    26    11    12    1
#	Name:			CHEMBL86754
#	Creating user name:	trannguyen
#	Creation time:		Tue Feb  8 18:26:14 2022


#	Modifying user name:	trannguyen
#	Modification time:	Tue Feb  8 18:26:14 2022

@<TRIPOS>MOLECULE
CHEMBL86754
 14 15 0 0 0
SMALL
GASTEIGER

@<TRIPOS>ATOM
      1 O           0.9874   31.9556    5.5790 O.3     1  UNL1       -0.5036
      2 C           2.1129   31.9344    6.3770 C.ar    1  UNL1        0.1564
      3 C           3.2663   32.6185    5.9798 C.ar    1  UNL1        0.0656
      4 I           3.3316   33.7154    4.2005 I       1  UNL1       -0.0393
      5 C           4.4008   32.5876    6.7784 C.ar    1  UNL1        0.0147
      6 C           4.3738   31.8747    7.9804 C.ar    1  UNL1        0.0321
      7 I           6.1690   31.9044    9.0950 I       1  UNL1       -0.0425
      8 C           3.2041   31.1874    8.4084 C.ar    1  UNL1        0.0261
      9 C           3.0914   30.4656    9.6219 C.ar    1  UNL1        0.0036
     10 C           1.9054   29.8332    9.9753 C.ar    1  UNL1        0.0207
     11 C           0.8491   29.9228    9.1013 C.ar    1  UNL1        0.0989
     12 N           0.9084   30.5896    7.9329 N.ar    1  UNL1       -0.2408
     13 C           2.0540   31.2192    7.5831 C.ar    1  UNL1        0.1157
     14 H           1.1804   32.4906    4.7912 H       1  UNL1        0.2923
@<TRIPOS>BOND
     1     1     2    1
     2     1    14    1
     3     2     3   ar
     4     2    13   ar
     5     3     4    1
     6     3     5   ar
     7     5     6   ar
     8     6     7    1
     9     6     8   ar
    10     8     9   ar
    11     8    13   ar
    12     9    10   ar
    13    10    11   ar
    14    11    12   ar
    15    12    13   ar
#	Name:			CHEMBL86
#	Creating user name:	trannguyen
#	Creation time:		Tue Feb  8 18:26:14 2022


#	Modifying user name:	trannguyen
#	Modification time:	Tue Feb  8 18:26:14 2022

@<TRIPOS>MOLECULE
CHEMBL86
 23 23 0 0 0
SMALL
GASTEIGER

@<TRIPOS>ATOM
      1 C           3.3663   30.6579    9.0766 C.ar    1  UNL1        0.0882
      2 C           2.0150   30.2894    9.1764 C.ar    1  UNL1        0.0202
      3 C           1.6252   29.2362   10.0033 C.ar    1  UNL1        0.0709
      4 CL         -0.0576   28.8555   10.1236 Cl      1  UNL1       -0.0810
      5 C           2.5698   28.5335   10.7657 C.ar    1  UNL1        0.0553
      6 N           2.2255   27.4096   11.5401 N.pl3   1  UNL1       -0.3563
      7 C           3.9240   28.8254   10.5701 C.ar    1  UNL1        0.0520
      8 C           4.3383   29.8923    9.7584 C.ar    1  UNL1        0.1443
      9 H           1.2537   27.4324   11.8472 H       1  UNL1        0.1424
     10 H           2.8651   27.2128   12.3034 H       1  UNL1        0.1424
     11 N           4.7941   31.8950    7.5044 N.am    1  UNL1       -0.2994
     12 C           3.6621   31.9059    8.2809 C.2     1  UNL1        0.2489
     13 O           2.9174   32.8764    8.3591 O.2     1  UNL1       -0.2700
     14 H           5.3087   31.0273    7.4271 H       1  UNL1        0.1498
     15 C           5.2009   32.9972    6.6432 C.3     1  UNL1        0.1070
     16 C           4.8584   32.8601    5.1377 C.3     1  UNL1        0.0936
     17 N           4.8033   31.4969    4.5303 N.3     1  UNL1       -0.2712
     18 C           2.3035   31.2914    4.9302 C.3     1  UNL1        0.0188
     19 C           3.4759   31.2386    3.9597 C.3     1  UNL1        0.0722
     20 C           5.9615   31.2963    3.6464 C.3     1  UNL1        0.0722
     21 C           6.5444   32.5077    2.9380 C.3     1  UNL1        0.0188
     22 O           5.6640   30.1807    9.5454 O.3     1  UNL1       -0.4712
     23 C           6.3893   30.7299   10.6430 C.3     1  UNL1        0.2525
@<TRIPOS>BOND
     1    18    19    1
     2    19    17    1
     3    17    20    1
     4    17    16    1
     5    20    21    1
     6    16    15    1
     7    15    11    1
     8    11    12   am
     9    11    14    1
    10    12    13    2
    11    12     1    1
    12     1     2   ar
    13     1     8   ar
    14     2     3   ar
    15     3     4    1
    16     3     5   ar
    17     5     6    1
    18     5     7   ar
    19     6     9    1
    20     6    10    1
    21     7     8   ar
    22     8    22    1
    23    22    23    1
#	Name:			CHEMBL870
#	Creating user name:	trannguyen
#	Creation time:		Tue Feb  8 18:26:14 2022


#	Modifying user name:	trannguyen
#	Modification time:	Tue Feb  8 18:26:14 2022

@<TRIPOS>MOLECULE
CHEMBL870
 21 20 0 0 0
SMALL
GASTEIGER

@<TRIPOS>ATOM
      1 C           2.0758   30.0471   10.1912 C.3     1  UNL1        0.2746
      2 O           1.8475   30.7174   11.4641 O.3     1  UNL1       -0.3667
      3 H           1.0112   30.3217   11.7881 H       1  UNL1        0.2117
      4 P           0.6804   30.4887    9.0671 P.3     1  UNL1        0.3716
      5 O           0.9012   30.4178    7.6040 O.2     1  UNL1       -0.2551
      6 O          -0.5785   29.5948    9.5366 O.3     1  UNL1       -0.3217
      7 O           0.1461   31.9462    9.4989 O.3     1  UNL1       -0.3217
      8 H          -1.3209   29.6075    8.9077 H       1  UNL1        0.2198
      9 H          -0.4872   32.3232    8.8626 H       1  UNL1        0.2198
     10 P           2.0601   28.2319   10.4230 P.3     1  UNL1        0.3716
     11 O           3.2690   28.2577   11.3754 O.2     1  UNL1       -0.2551
     12 O           0.7953   28.3177   11.4783 O.3     1  UNL1       -0.3217
     13 O           2.0453   26.5159   10.6420 O.3     1  UNL1       -0.3217
     14 H           1.1187   28.0760   12.3688 H       1  UNL1        0.2198
     15 H           2.7078   26.3679   11.3473 H       1  UNL1        0.2198
     16 C           3.4296   30.5415    9.6156 C.3     1  UNL1        0.0525
     17 C           3.4705   31.8655    8.8154 C.3     1  UNL1        0.0205
     18 N           2.6626   33.5148   10.4581 N.3     1  UNL1       -0.3211
     19 C           3.7439   33.1795    9.5533 C.3     1  UNL1        0.0653
     20 H           2.8527   34.3985   10.9402 H       1  UNL1        0.1189
     21 H           2.5076   32.8057   11.1784 H       1  UNL1        0.1189
@<TRIPOS>BOND
     1    18    19    1
     2    18    20    1
     3    18    21    1
     4    19    17    1
     5    17    16    1
     6    16     1    1
     7     1     2    1
     8     1     4    1
     9     1    10    1
    10     2     3    1
    11     4     5    2
    12     4     6    1
    13     4     7    1
    14     6     8    1
    15     7     9    1
    16    10    11    2
    17    10    12    1
    18    10    13    1
    19    12    14    1
    20    13    15    1
#	Name:			CHEMBL871
#	Creating user name:	trannguyen
#	Creation time:		Tue Feb  8 18:26:14 2022


#	Modifying user name:	trannguyen
#	Modification time:	Tue Feb  8 18:26:14 2022

@<TRIPOS>MOLECULE
CHEMBL871
 16 15 0 0 0
SMALL
GASTEIGER

@<TRIPOS>ATOM
      1 C           0.5089   30.3486    9.3412 C.3     1  UNL1        0.0548
      2 C           1.8079   29.9942   10.0783 C.3     1  UNL1        0.2747
      3 O           1.7316   30.6825   11.3668 O.3     1  UNL1       -0.3667
      4 H           2.4516   30.2559   11.8897 H       1  UNL1        0.2117
      5 P           1.9983   28.1940   10.3469 P.3     1  UNL1        0.3716
      6 O           2.8437   28.4267   11.6086 O.2     1  UNL1       -0.2551
      7 O           0.4742   28.0312   10.9320 O.3     1  UNL1       -0.3217
      8 O           2.1785   26.4922   10.6008 O.3     1  UNL1       -0.3217
      9 H           0.4664   28.0012   11.9076 H       1  UNL1        0.2198
     10 H           2.5103   26.3941   11.5158 H       1  UNL1        0.2198
     11 P           3.2368   30.7314    9.1996 P.3     1  UNL1        0.3716
     12 O           3.0364   31.0218    7.7612 O.2     1  UNL1       -0.2551
     13 O           3.6646   32.0123   10.0739 O.3     1  UNL1       -0.3217
     14 O           4.5037   29.8087    9.5109 O.3     1  UNL1       -0.3217
     15 H           3.4837   31.9122   11.0413 H       1  UNL1        0.2198
     16 H           5.3126   30.1358    9.0588 H       1  UNL1        0.2198
@<TRIPOS>BOND
     1     1     2    1
     2     2     3    1
     3     2     5    1
     4     2    11    1
     5     3     4    1
     6     5     6    2
     7     5     7    1
     8     5     8    1
     9     7     9    1
    10     8    10    1
    11    11    12    2
    12    11    13    1
    13    11    14    1
    14    13    15    1
    15    14    16    1
#	Name:			CHEMBL87285
#	Creating user name:	trannguyen
#	Creation time:		Tue Feb  8 18:26:14 2022


#	Modifying user name:	trannguyen
#	Modification time:	Tue Feb  8 18:26:14 2022

@<TRIPOS>MOLECULE
CHEMBL87285
 22 25 0 0 0
SMALL
GASTEIGER

@<TRIPOS>ATOM
      1 C           7.5158   32.5358   11.8599 C.3     1  UNL1        0.0073
      2 C           7.8627   33.5432   10.7425 C.3     1  UNL1        0.0515
      3 C           6.8443   34.6339   10.5720 C.3     1  UNL1        0.0069
      4 C           5.5431   34.0576   10.0943 C.3     1  UNL1        0.0004
      5 C           5.5376   33.1513    8.8053 C.3     1  UNL1        0.0000
      6 C           6.8721   32.3096    8.6548 C.3     1  UNL1        0.0004
      7 C           6.6830   30.8081    8.7271 C.3     1  UNL1        0.0000
      8 C           5.5246   30.2823    9.5529 C.3     1  UNL1        0.0001
      9 C           4.2654   31.1640    9.7745 C.3     1  UNL1        0.0024
     10 C           3.0671   30.1909    9.8190 C.3     1  UNL1        0.0292
     11 C           1.8079   30.8774    9.3666 C.3     1  UNL1        0.1105
     12 O           0.6818   30.0517    9.6159 O.3     1  UNL1       -0.3845
     13 C           1.9939   31.1958    7.8633 C.3     1  UNL1        0.0292
     14 C           3.4260   31.8046    7.5118 C.3     1  UNL1        0.0025
     15 C           4.1093   32.3882    8.7893 C.3     1  UNL1        0.0002
     16 C           3.0741   33.5297    9.1824 C.3     1  UNL1        0.0000
     17 C           8.1416   32.8953    9.3817 C.3     1  UNL1        0.0070
     18 C           9.4764   32.1448    9.6681 C.3     1  UNL1        0.0082
     19 C          10.3025   33.1441   10.5381 C.3     1  UNL1        0.0645
     20 C           9.2451   34.1257   10.9828 C.2     1  UNL1        0.1498
     21 O           9.4755   35.2292   11.4109 O.2     1  UNL1       -0.2961
     22 H           0.5800   30.0219   10.5871 H       1  UNL1        0.2103
@<TRIPOS>BOND
     1     2     1    1
     2     2     3    1
     3     2    17    1
     4     2    20    1
     5     3     4    1
     6     4     5    1
     7     5     6    1
     8     5    15    1
     9     6     7    1
    10     6    17    1
    11     7     8    1
    12     8     9    1
    13     9    10    1
    14     9    15    1
    15    10    11    1
    16    11    13    1
    17    11    12    1
    18    12    22    1
    19    13    14    1
    20    14    15    1
    21    15    16    1
    22    17    18    1
    23    18    19    1
    24    19    20    1
    25    20    21    2
#	Name:			CHEMBL877
#	Creating user name:	trannguyen
#	Creation time:		Tue Feb  8 18:26:14 2022


#	Modifying user name:	trannguyen
#	Modification time:	Tue Feb  8 18:26:14 2022

@<TRIPOS>MOLECULE
CHEMBL877
 14 14 0 0 0
SMALL
GASTEIGER

@<TRIPOS>ATOM
      1 C           1.7269   31.5076    9.2336 C.3     1  UNL1        0.0155
      2 C           0.4977   30.5845    9.2548 C.3     1  UNL1        0.0019
      3 C           0.8316   29.1334    8.9120 C.3     1  UNL1        0.0111
      4 C           1.9459   28.5523    9.7912 C.3     1  UNL1        0.0989
      5 C           3.1715   29.4785    9.8346 C.3     1  UNL1        0.0111
      6 C           2.8210   30.9356   10.1485 C.3     1  UNL1        0.0019
      7 N           1.2158   32.1199    6.8779 N.3     1  UNL1       -0.3211
      8 C           2.2769   31.7718    7.8171 C.3     1  UNL1        0.0651
      9 H           1.6273   32.3593    5.9764 H       1  UNL1        0.1189
     10 H           0.7372   32.9606    7.2013 H       1  UNL1        0.1189
     11 C           1.4519   28.2074   11.1938 C.2     1  UNL1        0.3132
     12 O           2.1487   28.1642   12.1943 O.2     1  UNL1       -0.2503
     13 O           0.1365   27.8886   11.2330 O.3     1  UNL1       -0.4802
     14 H          -0.3102   27.9181   10.3671 H       1  UNL1        0.2951
@<TRIPOS>BOND
     1     7     8    1
     2     7     9    1
     3     7    10    1
     4     8     1    1
     5     1     2    1
     6     1     6    1
     7     2     3    1
     8     3     4    1
     9     4    11    1
    10     4     5    1
    11    11    12    2
    12    11    13    1
    13    13    14    1
    14     5     6    1
#	Name:			CHEMBL878
#	Creating user name:	trannguyen
#	Creation time:		Tue Feb  8 18:26:14 2022


#	Modifying user name:	trannguyen
#	Modification time:	Tue Feb  8 18:26:14 2022

@<TRIPOS>MOLECULE
CHEMBL878
 27 29 0 0 0
SMALL
GASTEIGER

@<TRIPOS>ATOM
      1 N           6.7898   31.6796    9.2713 N.am    1  UNL1       -0.2405
      2 C           6.1267   30.6927   10.0206 C.2     1  UNL1        0.2551
      3 O           6.6439   29.9897   10.8876 O.2     1  UNL1       -0.2695
      4 C           4.6820   30.4990    9.7624 C.ar    1  UNL1        0.0684
      5 C           3.9633   29.5212   10.4650 C.ar    1  UNL1        0.0265
      6 C           2.6015   29.3319   10.2034 C.ar    1  UNL1        0.1324
      7 C           1.9654   30.1117    9.2372 C.ar    1  UNL1        0.0774
      8 CL          0.2906   29.9678    8.8431 Cl      1  UNL1       -0.0808
      9 C           2.7022   31.0735    8.5315 C.ar    1  UNL1        0.0272
     10 C           4.0575   31.2960    8.8069 C.ar    1  UNL1        0.0510
     11 N           4.7914   32.1904    8.0298 N.pl3   1  UNL1       -0.3184
     12 C           5.9918   32.7429    8.6565 C.3     1  UNL1        0.1532
     13 C           6.7240   33.5101    7.5431 C.3     1  UNL1        0.0444
     14 H           4.2115   32.9086    7.6030 H       1  UNL1        0.1483
     15 C           9.1073   30.5117    7.8072 C.3     1  UNL1        0.0323
     16 C           9.2461   31.4047    9.0114 C.ar    1  UNL1       -0.0081
     17 C          10.5452   31.7405    9.4389 C.ar    1  UNL1       -0.0030
     18 C          10.7519   32.6248   10.4969 C.ar    1  UNL1       -0.0002
     19 C           9.6630   33.1848   11.1512 C.ar    1  UNL1        0.0013
     20 C           8.3679   32.8592   10.7471 C.ar    1  UNL1        0.0146
     21 C           8.1387   31.9780    9.6735 C.ar    1  UNL1        0.0516
     22 S           1.6927   28.1008   11.0753 S.O2    1  UNL1        0.0580
     23 N           2.1561   26.6430   10.3762 N.3     1  UNL1       -0.2034
     24 O           2.1885   28.0350   12.4282 O.2     1  UNL1       -0.1532
     25 O           0.2932   28.2357   10.7433 O.2     1  UNL1       -0.1532
     26 H           2.6113   26.0571   11.0782 H       1  UNL1        0.1442
     27 H           1.3452   26.2002    9.9406 H       1  UNL1        0.1442
@<TRIPOS>BOND
     1    15    16    1
     2    16    17   ar
     3    16    21   ar
     4    17    18   ar
     5    18    19   ar
     6    19    20   ar
     7    20    21   ar
     8    21     1    1
     9     1     2   am
    10     1    12    1
    11     2     3    2
    12     2     4    1
    13     4     5   ar
    14     4    10   ar
    15     5     6   ar
    16     6    22    1
    17     6     7   ar
    18    22    23    1
    19    22    24    2
    20    22    25    2
    21    23    26    1
    22    23    27    1
    23     7     8    1
    24     7     9   ar
    25     9    10   ar
    26    10    11    1
    27    11    12    1
    28    11    14    1
    29    12    13    1
#	Name:			CHEMBL880
#	Creating user name:	trannguyen
#	Creation time:		Tue Feb  8 18:26:14 2022


#	Modifying user name:	trannguyen
#	Modification time:	Tue Feb  8 18:26:14 2022

@<TRIPOS>MOLECULE
CHEMBL880
 25 26 0 0 0
SMALL
GASTEIGER

@<TRIPOS>ATOM
      1 C           2.9377   31.6499    7.6258 C.3     1  UNL1        0.1093
      2 N           2.8781   31.9547    6.2081 N.ar    1  UNL1       -0.2944
      3 C           1.8216   31.7722    5.3569 C.ar    1  UNL1        0.1797
      4 N           2.0830   32.2231    4.1440 N.ar    1  UNL1       -0.2207
      5 C           3.3563   32.7356    4.2240 C.ar    1  UNL1        0.1363
      6 C           4.2143   33.3233    3.3028 C.ar    1  UNL1        0.1240
      7 N           5.4398   33.7517    3.7134 N.ar    1  UNL1       -0.2108
      8 C           5.7880   33.5782    5.0020 C.ar    1  UNL1        0.2151
      9 N           7.0281   34.0460    5.3888 N.pl3   1  UNL1       -0.3274
     10 N           5.0400   33.0297    5.9679 N.ar    1  UNL1       -0.1950
     11 C           3.8513   32.6136    5.5097 C.ar    1  UNL1        0.1672
     12 H           7.3109   34.7994    4.7784 H       1  UNL1        0.1452
     13 H           7.0127   34.2351    6.3812 H       1  UNL1        0.1452
     14 C           1.8460   30.6866    8.1307 C.3     1  UNL1        0.0320
     15 C           1.3495   30.9867    9.5770 C.3     1  UNL1        0.0895
     16 C           1.7658   32.3687   10.1164 C.3     1  UNL1        0.2121
     17 O           0.6513   33.2565   10.2865 O.3     1  UNL1       -0.4484
     18 C           2.4251   34.7376   10.6359 C.3     1  UNL1        0.1212
     19 C           0.9437   34.5572   10.5461 C.2     1  UNL1        0.3176
     20 O           0.1267   35.4581   10.6528 O.2     1  UNL1       -0.2501
     21 C           1.8265   29.9283   10.5974 C.3     1  UNL1        0.2121
     22 O           1.7518   28.6000   10.0535 O.3     1  UNL1       -0.4484
     23 C           2.5665   27.6957   10.6288 C.2     1  UNL1        0.3176
     24 C           3.9369   27.7101   10.0602 C.3     1  UNL1        0.1212
     25 O           2.2492   26.9396   11.5332 O.2     1  UNL1       -0.2501
@<TRIPOS>BOND
     1    18    19    1
     2    19    20    2
     3    19    17    1
     4    17    16    1
     5    16    15    1
     6    15    14    1
     7    15    21    1
     8    14     1    1
     9     1     2    1
    10     2     3   ar
    11     2    11   ar
    12     3     4   ar
    13     4     5   ar
    14     5     6   ar
    15     5    11   ar
    16     6     7   ar
    17     7     8   ar
    18     8     9    1
    19     8    10   ar
    20     9    12    1
    21     9    13    1
    22    10    11   ar
    23    21    22    1
    24    22    23    1
    25    23    24    1
    26    23    25    2
#	Name:			CHEMBL888
#	Creating user name:	trannguyen
#	Creation time:		Tue Feb  8 18:26:14 2022


#	Modifying user name:	trannguyen
#	Modification time:	Tue Feb  8 18:26:14 2022

@<TRIPOS>MOLECULE
CHEMBL888
 22 23 0 0 0
SMALL
GASTEIGER

@<TRIPOS>ATOM
      1 C           3.3286   29.9484    9.0861 C.3     1  UNL1        0.2738
      2 O           1.9248   29.8181    8.7584 O.3     1  UNL1       -0.3285
      3 C           1.3709   28.8116    9.6447 C.3     1  UNL1        0.1789
      4 C           2.2722   28.7076   10.8664 C.3     1  UNL1        0.2062
      5 O           2.1483   27.4237   11.4862 O.3     1  UNL1       -0.3771
      6 C           3.6241   28.9836   10.2429 C.3     1  UNL1        0.3348
      7 F           4.1352   27.8254    9.7311 F       1  UNL1       -0.1968
      8 F           4.5254   29.4334   11.1363 F       1  UNL1       -0.1968
      9 H           2.9098   27.3089   12.0838 H       1  UNL1        0.2106
     10 N           4.6776   35.2700    9.7985 N.pl3   1  UNL1       -0.3425
     11 C           4.3337   33.9576    9.6239 C.ar    1  UNL1        0.1316
     12 C           2.9283   33.5481    9.7963 C.ar    1  UNL1        0.0528
     13 C           2.6663   32.2601    9.5813 C.ar    1  UNL1        0.0850
     14 N           3.6653   31.3682    9.2492 N.ar    1  UNL1       -0.2512
     15 C           4.9901   31.7956    9.1035 C.ar    1  UNL1        0.3531
     16 O           5.8778   31.0128    8.8005 O.2     1  UNL1       -0.2443
     17 N           5.2735   33.1311    9.2974 N.ar    1  UNL1       -0.1777
     18 H           3.9854   35.9708    9.5663 H       1  UNL1        0.1437
     19 H           5.6031   35.4828    9.4379 H       1  UNL1        0.1437
     20 C          -0.0657   29.1843   10.0022 C.3     1  UNL1        0.1694
     21 O          -0.7848   28.0117   10.3913 O.3     1  UNL1       -0.3794
     22 H          -0.4464   27.2856    9.8344 H       1  UNL1        0.2105
@<TRIPOS>BOND
     1    10    11    1
     2    10    18    1
     3    10    19    1
     4    11    12   ar
     5    11    17   ar
     6    12    13   ar
     7    13    14   ar
     8    14    15   ar
     9     1     2    1
    10     1     6    1
    11     1    14    1
    12     2     3    1
    13     3    20    1
    14     3     4    1
    15    20    21    1
    16    21    22    1
    17     4     6    1
    18     4     5    1
    19     5     9    1
    20     6     7    1
    21     6     8    1
    22    15    16    2
    23    15    17   ar
#	Name:			CHEMBL88
#	Creating user name:	trannguyen
#	Creation time:		Tue Feb  8 18:26:14 2022


#	Modifying user name:	trannguyen
#	Modification time:	Tue Feb  8 18:26:14 2022

@<TRIPOS>MOLECULE
CHEMBL88
 15 15 0 0 0
SMALL
GASTEIGER

@<TRIPOS>ATOM
      1 O           2.2212   32.4467   10.5689 O.2     1  UNL1       -0.2542
      2 P           2.3514   31.0957    9.9007 P.3     1  UNL1        0.3483
      3 N           0.9927   30.2148    9.9775 N.3     1  UNL1       -0.2223
      4 C           0.9689   28.7790    9.8356 C.3     1  UNL1        0.0801
      5 C           2.0994   28.1348   10.6236 C.3     1  UNL1        0.0501
      6 C           3.4530   28.7863   10.3689 C.3     1  UNL1        0.1531
      7 O           3.4278   30.1796   10.6606 O.3     1  UNL1       -0.2919
      8 H           0.1216   30.6360    9.6844 H       1  UNL1        0.1333
      9 N           2.8247   31.2103    8.3254 N.3     1  UNL1       -0.1956
     10 C           1.7673   31.1760    7.2848 C.3     1  UNL1        0.0991
     11 C           2.0985   32.0013    6.0378 C.3     1  UNL1        0.1126
     12 CL          2.7396   30.9658    4.7387 Cl      1  UNL1       -0.1122
     13 C           3.8084   32.2733    7.9754 C.3     1  UNL1        0.0991
     14 C           5.3028   31.9915    8.2025 C.3     1  UNL1        0.1126
     15 CL          5.8139   32.6826    9.7769 Cl      1  UNL1       -0.1122
@<TRIPOS>BOND
     1     1     2    2
     2     2     9    1
     3     2     3    1
     4     2     7    1
     5     9    10    1
     6     9    13    1
     7    10    11    1
     8    11    12    1
     9    13    14    1
    10    14    15    1
    11     3     4    1
    12     3     8    1
    13     4     5    1
    14     5     6    1
    15     6     7    1
#	Name:			CHEMBL891
#	Creating user name:	trannguyen
#	Creation time:		Tue Feb  8 18:26:14 2022


#	Modifying user name:	trannguyen
#	Modification time:	Tue Feb  8 18:26:14 2022

@<TRIPOS>MOLECULE
CHEMBL891
 31 34 0 0 0
SMALL
GASTEIGER

@<TRIPOS>ATOM
      1 C           4.2601   30.1451    9.4549 C.2     1  UNL1        0.2505
      2 O           4.6980   29.0262    9.7230 O.2     1  UNL1       -0.2700
      3 N           5.1083   31.2286    9.4931 N.am    1  UNL1       -0.2927
      4 H           4.7384   32.1634    9.4175 H       1  UNL1        0.1502
      5 CA          6.5570   31.0540    9.8029 C.3     1  UNL1        0.1779
      6 C           7.1464   31.9791   10.8876 C.2     1  UNL1        0.2471
      7 O           6.7730   32.4516   11.9391 O.2     1  UNL1       -0.2730
      8 N           8.2376   32.2824   10.1075 N.am    1  UNL1       -0.2597
      9 CA          8.7387   33.6653   10.0756 C.3     1  UNL1        0.1843
     10 C           7.8717   34.4621    9.0677 C.3     1  UNL1        0.0679
     11 C           8.6188   35.4972    8.2184 C.3     1  UNL1        0.0131
     12 C           6.7313   35.1904    9.7937 C.3     1  UNL1        0.0131
     13 S           7.0807   33.2233    7.9299 S.3     1  UNL1       -0.1185
     14 C           7.5977   31.7509    8.8834 C.3     1  UNL1        0.1509
     15 C          10.2483   33.6698    9.7906 C.2     1  UNL1        0.3329
     16 O          10.7753   33.0927    8.8506 O.2     1  UNL1       -0.2484
     17 OXT        10.9698   34.4224   10.6562 O.3     1  UNL1       -0.4790
     18 HXT        10.3808   34.8920   11.2778 H       1  UNL1        0.2951
     19 C           1.6975   29.1668   11.1429 C.3     1  UNL1        0.0755
     20 C           1.8128   29.8972    9.8607 C.ar    1  UNL1        0.1591
     21 O           0.6349   30.1988    9.2731 O.2     1  UNL1       -0.3576
     22 N           0.8618   30.8469    8.0941 N.ar    1  UNL1       -0.0772
     23 C           2.1911   30.9976    7.9737 C.ar    1  UNL1        0.1277
     24 C           2.8660   30.3596    9.0798 C.ar    1  UNL1        0.1070
     25 C           2.6882   31.7074    6.7873 C.ar    1  UNL1        0.0316
     26 C           2.6009   31.0986    5.5239 C.ar    1  UNL1        0.0024
     27 C           3.0882   31.7416    4.3815 C.ar    1  UNL1        0.0001
     28 C           3.5880   33.0351    4.4608 C.ar    1  UNL1        0.0009
     29 C           3.6126   33.6862    5.6887 C.ar    1  UNL1        0.0114
     30 C           3.1922   33.0247    6.8511 C.ar    1  UNL1        0.0592
     31 CL          3.3711   33.9075    8.3313 Cl      1  UNL1       -0.0822
@<TRIPOS>BOND
     1    19    20    1
     2    20    21   ar
     3    20    24   ar
     4    21    22   ar
     5    22    23   ar
     6    23    25    1
     7    23    24   ar
     8    25    26   ar
     9    25    30   ar
    10    26    27   ar
    11    27    28   ar
    12    28    29   ar
    13    29    30   ar
    14    30    31    1
    15    24     1    1
    16     1     2    2
    17     1     3   am
    18     3     4    1
    19     5     6    1
    20     5    14    1
    21     5     3    1
    22     6     7    2
    23     6     8   am
    24     8     9    1
    25     8    14    1
    26     9    10    1
    27     9    15    1
    28    15    16    2
    29    15    17    1
    30    17    18    1
    31    10    11    1
    32    10    12    1
    33    10    13    1
    34    13    14    1
#	Name:			CHEMBL894
#	Creating user name:	trannguyen
#	Creation time:		Tue Feb  8 18:26:14 2022


#	Modifying user name:	trannguyen
#	Modification time:	Tue Feb  8 18:26:14 2022

@<TRIPOS>MOLECULE
CHEMBL894
 17 17 0 0 0
SMALL
GASTEIGER

@<TRIPOS>ATOM
      1 C           4.1301   31.5326    9.1883 C.2     1  UNL1        0.1871
      2 O           5.1451   31.9523    9.7634 O.2     1  UNL1       -0.2899
      3 C           3.6030   30.1852    9.6082 C.ar    1  UNL1        0.0369
      4 C           4.4063   29.0601    9.8451 C.ar    1  UNL1        0.0029
      5 C           3.8271   27.8230   10.1733 C.ar    1  UNL1        0.0010
      6 C           2.4429   27.7004   10.2937 C.ar    1  UNL1        0.0114
      7 C           1.6378   28.8130   10.0728 C.ar    1  UNL1        0.0578
      8 CL         -0.0700   28.6736   10.2397 Cl      1  UNL1       -0.0822
      9 C           2.2043   30.0378    9.7189 C.ar    1  UNL1        0.0143
     10 C           3.3854   33.8355    8.6833 C.3     1  UNL1        0.0255
     11 C           3.3751   32.3893    8.1521 C.3     1  UNL1        0.1167
     12 N           4.0356   32.4496    6.8190 N.3     1  UNL1       -0.2946
     13 H           4.8085   31.7786    6.8276 H       1  UNL1        0.1235
     14 C           3.2718   32.2657    5.5682 C.3     1  UNL1        0.0423
     15 C           2.1062   31.2980    5.8999 C.3     1  UNL1        0.0158
     16 C           2.6338   33.5590    5.0426 C.3     1  UNL1        0.0158
     17 C           4.0973   31.6071    4.4529 C.3     1  UNL1        0.0158
@<TRIPOS>BOND
     1    10    11    1
     2    11    12    1
     3    11     1    1
     4    12    14    1
     5    12    13    1
     6    14    15    1
     7    14    16    1
     8    14    17    1
     9     1     2    2
    10     1     3    1
    11     3     4   ar
    12     3     9   ar
    13     4     5   ar
    14     5     6   ar
    15     6     7   ar
    16     7     8    1
    17     7     9   ar
#	Name:			CHEMBL895
#	Creating user name:	trannguyen
#	Creation time:		Tue Feb  8 18:26:14 2022


#	Modifying user name:	trannguyen
#	Modification time:	Tue Feb  8 18:26:14 2022

@<TRIPOS>MOLECULE
CHEMBL895
 29 34 0 0 0
SMALL
GASTEIGER

@<TRIPOS>ATOM
      1 O           3.1680   43.6801   -5.3282 O.3     1  UNL1       -0.5029
      2 C           4.0744   42.7116   -4.9908 C.ar    1  UNL1        0.1674
      3 C           4.8047   42.8146   -3.7351 C.ar    1  UNL1        0.0394
      4 C           5.8335   41.9204   -3.2926 C.ar    1  UNL1       -0.0012
      5 C           6.1056   40.8715   -4.1281 C.ar    1  UNL1       -0.0214
      6 C           5.2125   40.7691   -5.4637 C.ar    1  UNL1        0.0161
      7 C           4.3007   41.6830   -5.8806 C.ar    1  UNL1        0.1677
      8 O           3.8807   41.4274   -7.1604 O.3     1  UNL1       -0.4736
      9 C           4.9829   40.6027   -7.6998 C.3     1  UNL1        0.1984
     10 C           4.6635   39.8994   -9.0211 C.3     1  UNL1        0.1507
     11 O           4.5191   40.8850  -10.0505 O.3     1  UNL1       -0.3808
     12 C           5.7846   38.9042   -9.4501 C.3     1  UNL1        0.0354
     13 C           7.1160   38.9677   -8.6314 C.3     1  UNL1        0.0313
     14 C           6.8524   38.6609   -7.1276 C.3     1  UNL1        0.1088
     15 O           6.5775   37.2175   -7.1660 O.3     1  UNL1       -0.3850
     16 C           8.1401   38.8988   -5.6615 C.3     1  UNL1        0.0870
     17 C           7.4807   39.6656   -3.9956 C.3     1  UNL1        0.0445
     18 N           8.7899   40.1131   -5.9198 N.3     1  UNL1       -0.2716
     19 C           7.4581   40.6219   -6.1167 C.3     1  UNL1        0.0727
     20 C           6.0828   39.2620   -5.5800 C.3     1  UNL1        0.0274
     21 C           5.3325   39.5060   -6.7037 C.3     1  UNL1        0.0857
     22 H           3.1131   44.3218   -4.6031 H       1  UNL1        0.2923
     23 H           3.8620   41.5298   -9.7238 H       1  UNL1        0.2105
     24 H           7.4357   36.7713   -7.2802 H       1  UNL1        0.2103
     25 C           9.7615   40.1459   -6.9922 C.3     1  UNL1        0.0721
     26 C           9.5926   41.4081   -7.8351 C.3     1  UNL1        0.0160
     27 C          10.7939   42.3932   -7.8078 C.3     1  UNL1        0.0014
     28 C          10.4649   42.7201   -9.2783 C.3     1  UNL1        0.0001
     29 C           9.8294   41.3182   -9.3692 C.3     1  UNL1        0.0014
@<TRIPOS>BOND
     1     1     2    1
     2     1    22    1
     3     2     3   ar
     4     2     7   ar
     5     3     4   ar
     6     4     5   ar
     7     5     6   ar
     8     5    17    1
     9     6     7   ar
    10     6    21    1
    11     7     8    1
    12     8     9    1
    13     9    10    1
    14     9    21    1
    15    10    12    1
    16    10    11    1
    17    11    23    1
    18    12    13    1
    19    13    14    1
    20    14    15    1
    21    14    16    1
    22    14    21    1
    23    15    24    1
    24    16    17    1
    25    16    18    1
    26    18    25    1
    27    18    19    1
    28    25    26    1
    29    26    27    1
    30    26    29    1
    31    27    28    1
    32    28    29    1
    33    19    20    1
    34    21    20    1
#	Name:			CHEMBL897
#	Creating user name:	trannguyen
#	Creation time:		Tue Feb  8 18:26:14 2022


#	Modifying user name:	trannguyen
#	Modification time:	Tue Feb  8 18:26:14 2022

@<TRIPOS>MOLECULE
CHEMBL897
 20 20 0 0 0
SMALL
GASTEIGER

@<TRIPOS>ATOM
      1 S           4.3861   32.6918    8.2814 S.O2    1  UNL1        0.0633
      2 O           5.6519   32.9487    8.9190 O.2     1  UNL1       -0.1528
      3 O           3.2981   33.6286    8.3886 O.2     1  UNL1       -0.1528
      4 C           3.8105   31.1218    8.9503 C.ar    1  UNL1        0.1222
      5 C           4.7179   30.2805    9.6073 C.ar    1  UNL1        0.0201
      6 C           4.2608   29.1510   10.2993 C.ar    1  UNL1        0.0078
      7 C           2.8958   28.8313   10.3014 C.ar    1  UNL1        0.0755
      8 C           1.9885   29.6836    9.6564 C.ar    1  UNL1        0.0078
      9 C           2.4389   30.8439    9.0086 C.ar    1  UNL1        0.0201
     10 C           2.3508   27.6495   11.0270 C.2     1  UNL1        0.3380
     11 O           1.9106   27.7162   12.1597 O.2     1  UNL1       -0.2451
     12 O           2.3400   26.5112   10.3015 O.3     1  UNL1       -0.4771
     13 H           2.6164   26.5957    9.3723 H       1  UNL1        0.2954
     14 N           4.6610   32.3629    6.6184 N.3     1  UNL1       -0.1555
     15 C           3.4853   32.6229    5.7263 C.3     1  UNL1        0.0958
     16 C           3.1166   30.8754    3.9350 C.3     1  UNL1        0.0015
     17 C           2.7246   31.3576    5.3218 C.3     1  UNL1        0.0191
     18 C           6.0039   32.7570    6.0742 C.3     1  UNL1        0.0958
     19 C           6.4656   31.9064    4.8879 C.3     1  UNL1        0.0191
     20 C           6.5571   32.6908    3.5818 C.3     1  UNL1        0.0015
@<TRIPOS>BOND
     1    16    17    1
     2    17    15    1
     3    15    14    1
     4    14    18    1
     5    14     1    1
     6    18    19    1
     7    19    20    1
     8     1     2    2
     9     1     3    2
    10     1     4    1
    11     4     5   ar
    12     4     9   ar
    13     5     6   ar
    14     6     7   ar
    15     7    10    1
    16     7     8   ar
    17    10    11    2
    18    10    12    1
    19    12    13    1
    20     8     9   ar
#	Name:			CHEMBL898
#	Creating user name:	trannguyen
#	Creation time:		Tue Feb  8 18:26:14 2022


#	Modifying user name:	trannguyen
#	Modification time:	Tue Feb  8 18:26:14 2022

@<TRIPOS>MOLECULE
CHEMBL898
 20 21 0 0 0
SMALL
GASTEIGER

@<TRIPOS>ATOM
      1 C           1.6796   28.8362   10.2868 C.ar    1  UNL1        0.1090
      2 C           2.7648   29.5672    9.7646 C.ar    1  UNL1        0.0096
      3 C           2.5869   30.6690    8.9039 C.ar    1  UNL1        0.0026
      4 C           1.2612   31.0124    8.5833 C.ar    1  UNL1        0.0032
      5 C           0.1682   30.3085    9.1021 C.ar    1  UNL1        0.0368
      6 C           0.3800   29.2220    9.9460 C.ar    1  UNL1        0.1398
      7 O          -0.6989   28.5334   10.4377 O.3     1  UNL1       -0.5053
      8 H          -1.5132   28.9245   10.0665 H       1  UNL1        0.2922
      9 C           3.7474   31.4304    8.3706 C.ar    1  UNL1        0.0276
     10 C           4.8226   31.8034    9.2053 C.ar    1  UNL1        0.0045
     11 C           5.9071   32.5417    8.7163 C.ar    1  UNL1        0.0298
     12 C           5.9429   32.9065    7.3784 C.ar    1  UNL1        0.1424
     13 F           6.9818   33.6104    6.9118 F       1  UNL1       -0.2041
     14 C           4.9160   32.5521    6.5214 C.ar    1  UNL1        0.0592
     15 C           3.8335   31.8294    7.0202 C.ar    1  UNL1        0.1423
     16 F           2.8475   31.5361    6.1576 F       1  UNL1       -0.2041
     17 O           2.0597   27.7988   12.3984 O.2     1  UNL1       -0.2450
     18 C           2.0027   27.6855   11.1817 C.2     1  UNL1        0.3410
     19 O           2.2320   26.5121   10.5584 O.3     1  UNL1       -0.4770
     20 H           2.1491   26.5863    9.5814 H       1  UNL1        0.2954
@<TRIPOS>BOND
     1    17    18    2
     2    18    19    1
     3    18     1    1
     4    19    20    1
     5     1     2   ar
     6     1     6   ar
     7     2     3   ar
     8     3     9    1
     9     3     4   ar
    10     9    10   ar
    11     9    15   ar
    12    10    11   ar
    13    11    12   ar
    14    12    13    1
    15    12    14   ar
    16    14    15   ar
    17    15    16    1
    18     4     5   ar
    19     5     6   ar
    20     6     7    1
    21     7     8    1
#	Name:			CHEMBL8
#	Creating user name:	trannguyen
#	Creation time:		Tue Feb  8 18:26:14 2022


#	Modifying user name:	trannguyen
#	Modification time:	Tue Feb  8 18:26:14 2022

@<TRIPOS>MOLECULE
CHEMBL8
 26 29 0 0 0
SMALL
GASTEIGER

@<TRIPOS>ATOM
      1 C           2.3932   32.0624    9.0047 C.ar    1  UNL1        0.1314
      2 C           3.6066   32.6297    9.0778 C.ar    1  UNL1        0.0855
      3 N           4.4796   32.8223    8.0219 N.ar    1  UNL1       -0.3276
      4 C           4.1466   32.3118    6.7361 C.ar    1  UNL1        0.0643
      5 C           5.0112   32.4001    5.6330 C.ar    1  UNL1        0.0341
      6 C           4.6644   31.9144    4.3557 C.ar    1  UNL1        0.0772
      7 C           3.4065   31.3073    4.2179 C.ar    1  UNL1        0.1535
      8 F           3.0180   30.7888    3.0435 F       1  UNL1       -0.2029
      9 C           2.5274   31.1941    5.2903 C.ar    1  UNL1        0.0355
     10 C           2.8963   31.7006    6.5382 C.ar    1  UNL1        0.0573
     11 C           1.9527   31.5865    7.6759 C.ar    1  UNL1        0.2047
     12 O           0.8341   31.0980    7.5384 O.2     1  UNL1       -0.2862
     13 N           5.5958   32.0955    3.3207 N.pl3   1  UNL1       -0.3029
     14 C           6.7672   31.1937    3.2826 C.3     1  UNL1        0.1079
     15 C           7.4965   31.3648    1.9288 C.3     1  UNL1        0.0903
     16 N           7.9258   32.7554    1.6730 N.3     1  UNL1       -0.2946
     17 C           6.7687   33.6632    1.8028 C.3     1  UNL1        0.0903
     18 C           5.9988   33.5095    3.1370 C.3     1  UNL1        0.1079
     19 H           8.2933   32.8188    0.7244 H       1  UNL1        0.1233
     20 O           1.9545   31.3264   11.2253 O.2     1  UNL1       -0.2449
     21 C           1.5811   31.9379   10.2305 C.2     1  UNL1        0.3427
     22 O           0.3785   32.5452   10.1730 O.3     1  UNL1       -0.4770
     23 H           0.2035   33.0149    9.3196 H       1  UNL1        0.2954
     24 C           5.8001   33.4139    8.3117 C.3     1  UNL1        0.0856
     25 C           6.3079   33.5660    9.7246 C.3     1  UNL1        0.0245
     26 C           6.9519   32.5736    8.8113 C.3     1  UNL1        0.0245
@<TRIPOS>BOND
     1    20    21    2
     2    21    22    1
     3    21     1    1
     4    22    23    1
     5     1     2   ar
     6     1    11   ar
     7     2     3   ar
     8     3    24    1
     9     3     4   ar
    10    24    25    1
    11    24    26    1
    12    25    26    1
    13     4     5   ar
    14     4    10   ar
    15     5     6   ar
    16     6    13    1
    17     6     7   ar
    18    13    14    1
    19    13    18    1
    20    14    15    1
    21    15    16    1
    22    16    17    1
    23    16    19    1
    24    17    18    1
    25     7     8    1
    26     7     9   ar
    27     9    10   ar
    28    10    11   ar
    29    11    12    2
#	Name:			CHEMBL900
#	Creating user name:	trannguyen
#	Creation time:		Tue Feb  8 18:26:14 2022


#	Modifying user name:	trannguyen
#	Modification time:	Tue Feb  8 18:26:14 2022

@<TRIPOS>MOLECULE
CHEMBL900
 20 21 0 0 0
SMALL
GASTEIGER

@<TRIPOS>ATOM
      1 C           2.3481   31.5286    9.0020 C.3     1  UNL1        0.1594
      2 C           0.3813   29.2308    9.7684 C.3     1  UNL1        0.0308
      3 C           1.8789   29.0926    9.8077 C.ar    1  UNL1       -0.0232
      4 C           2.3997   27.8281   10.1495 C.ar    1  UNL1       -0.0045
      5 C           3.7715   27.6054   10.2353 C.ar    1  UNL1       -0.0003
      6 C           4.6507   28.6576   10.0214 C.ar    1  UNL1       -0.0003
      7 C           4.1567   29.9190    9.6880 C.ar    1  UNL1       -0.0019
      8 C           2.7706   30.1587    9.5449 C.ar    1  UNL1        0.0048
      9 C           2.7018   31.7883    7.5281 C.ar    1  UNL1        0.0087
     10 C           2.0432   31.1241    6.4830 C.ar    1  UNL1       -0.0016
     11 C           2.4133   31.3007    5.1436 C.ar    1  UNL1       -0.0002
     12 C           3.4813   32.1409    4.8235 C.ar    1  UNL1       -0.0000
     13 C           4.1575   32.8022    5.8369 C.ar    1  UNL1       -0.0002
     14 C           3.7750   32.6394    7.1779 C.ar    1  UNL1       -0.0016
     15 O           2.8398   32.5975    9.8455 O.3     1  UNL1       -0.3460
     16 C           1.8264   33.4478   10.4160 C.3     1  UNL1        0.1602
     17 C           2.2546   34.9223   10.2025 C.3     1  UNL1        0.1047
     18 N           1.3010   35.9906   10.5755 N.3     1  UNL1       -0.2682
     19 C           1.4804   37.1543    9.6946 C.3     1  UNL1        0.0897
     20 C          -0.0957   35.5632   10.5551 C.3     1  UNL1        0.0897
@<TRIPOS>BOND
     1     2     3    1
     2     3     4   ar
     3     3     8   ar
     4     4     5   ar
     5     5     6   ar
     6     6     7   ar
     7     7     8   ar
     8     8     1    1
     9     1    15    1
    10     1     9    1
    11    15    16    1
    12    16    17    1
    13    17    18    1
    14    18    19    1
    15    18    20    1
    16     9    10   ar
    17     9    14   ar
    18    10    11   ar
    19    11    12   ar
    20    12    13   ar
    21    13    14   ar
#	Name:			CHEMBL902
#	Creating user name:	trannguyen
#	Creation time:		Tue Feb  8 18:26:14 2022


#	Modifying user name:	trannguyen
#	Modification time:	Tue Feb  8 18:26:14 2022

@<TRIPOS>MOLECULE
CHEMBL902
 28 28 0 0 0
SMALL
GASTEIGER

@<TRIPOS>ATOM
      1 C           2.0392   32.8417   10.2130 C.3     1  UNL1        0.1037
      2 C           1.2243   36.3876   10.0847 C.ar    1  UNL1        0.2721
      3 N           2.0115   35.3278    9.9811 N.ar    1  UNL1       -0.2092
      4 C           1.3223   34.1553   10.2859 C.ar    1  UNL1        0.0799
      5 C           0.0078   34.3548   10.6597 C.ar    1  UNL1        0.0554
      6 S          -0.3859   36.0154   10.5962 S.2     1  UNL1       -0.0289
      7 N           2.1922   39.2880    8.3096 N.pl3   1  UNL1       -0.2889
      8 C           1.9805   37.9946    8.6519 C.cat   1  UNL1        0.3841
      9 N           2.3470   37.2048    7.6147 N.pl3   1  UNL1       -0.2889
     10 N           1.4937   37.6887    9.8035 N.pl3   1  UNL1       -0.0449
     11 H           3.0539   39.4175    7.7935 H       1  UNL1        0.2547
     12 H           2.1315   39.9040    9.1126 H       1  UNL1        0.2547
     13 H           1.9810   37.5520    6.7349 H       1  UNL1        0.2547
     14 H           2.0541   36.2396    7.7727 H       1  UNL1        0.2547
     15 S           2.6881   32.4504    8.5427 S.3     1  UNL1       -0.1331
     16 C           1.7058   30.9627    8.1403 C.3     1  UNL1        0.0707
     17 C           0.6538   30.6708    9.2118 C.3     1  UNL1        0.1307
     18 C           1.0426   29.3933    9.9583 C.2     1  UNL1        0.3222
     19 N          -0.0075   28.6215   10.3872 N.pl3   1  UNL1       -0.2481
     20 N           2.3058   29.1842   10.1224 N.2     1  UNL1        0.1014
     21 H          -0.8436   28.6481    9.8117 H       1  UNL1        0.2882
     22 H           0.2066   27.6723   10.6867 H       1  UNL1        0.2882
     23 S           2.8367   27.8728   10.8896 S.O2    1  UNL1        0.2163
     24 N           2.3013   26.5857    9.9675 N.3     1  UNL1       -0.1684
     25 O           4.2847   27.8296   10.7937 O.2     1  UNL1       -0.1133
     26 O           2.1793   27.7722   12.1687 O.2     1  UNL1       -0.1133
     27 H           2.9375   26.4445    9.1847 H       1  UNL1        0.1477
     28 H           1.3388   26.7466    9.6804 H       1  UNL1        0.1477
@<TRIPOS>BOND
     1     7     8    1
     2     7    11    1
     3     7    12    1
     4     8     9    1
     5     8    10    2
     6     9    13    1
     7     9    14    1
     8    10     2    1
     9     2     3   ar
    10     2     6   ar
    11     3     4   ar
    12     4     1    1
    13     4     5   ar
    14     1    15    1
    15    15    16    1
    16    16    17    1
    17    17    18    1
    18    18    19    1
    19    18    20    2
    20    19    21    1
    21    19    22    1
    22    20    23    1
    23    23    24    1
    24    23    25    2
    25    23    26    2
    26    24    27    1
    27    24    28    1
    28     5     6   ar
#	Name:			CHEMBL90555
#	Creating user name:	trannguyen
#	Creation time:		Tue Feb  8 18:26:14 2022


#	Modifying user name:	trannguyen
#	Modification time:	Tue Feb  8 18:26:14 2022

@<TRIPOS>MOLECULE
CHEMBL90555
 63 71 0 0 0
SMALL
GASTEIGER

@<TRIPOS>ATOM
      1 C           9.9830   35.8070    8.9423 C.ar    1  UNL1        0.0262
      2 C          10.0563   35.6651    7.5206 C.ar    1  UNL1       -0.0034
      3 C           9.7191   34.4719    6.8765 C.ar    1  UNL1       -0.0062
      4 C           9.2931   33.3983    7.6292 C.ar    1  UNL1        0.0534
      5 C           9.0453   33.5279    8.9713 C.ar    1  UNL1        0.0512
      6 C           9.4187   34.7031    9.6546 C.ar    1  UNL1        0.1368
      7 N           9.1886   32.2360    6.8511 N.am    1  UNL1       -0.2499
      8 C           8.9911   30.9592    7.3193 C.2     1  UNL1        0.3070
      9 O           8.8555   30.5961    8.4930 O.2     1  UNL1       -0.2646
     10 C           9.2683   32.6385    5.4226 C.3     1  UNL1        0.1236
     11 C           7.8808   32.5902    4.7140 C.3     1  UNL1        0.2320
     12 O           7.6054   31.1611    4.5309 O.3     1  UNL1       -0.3727
     13 C           7.9670   33.2620    3.3101 C.3     1  UNL1        0.2098
     14 C           8.5245   34.7503    3.3393 C.3     1  UNL1        0.0719
     15 C           8.8291   35.1535    1.8818 C.2     1  UNL1       -0.0250
     16 C          10.0196   35.6407    1.4953 C.2     1  UNL1       -0.0132
     17 C          11.1854   35.7519    2.4283 C.3     1  UNL1        0.0985
     18 N          11.0345   34.7762    3.4997 N.3     1  UNL1       -0.2695
     19 C          12.1113   34.7938    4.4703 C.3     1  UNL1        0.0728
     20 C          11.5704   33.7812    5.4583 C.3     1  UNL1        0.0244
     21 C          10.0162   34.0048    5.4580 C.3     1  UNL1        0.0552
     22 C           9.7830   34.9505    4.2626 C.3     1  UNL1        0.0703
     23 H           7.2083   30.8126    5.3490 H       1  UNL1        0.2111
     24 C          15.1842   38.0976   11.5048 C.3     1  UNL1        0.1030
     25 O          15.2674   39.4547   11.0391 O.3     1  UNL1       -0.3854
     26 C          13.7062   37.7754   11.8801 C.3     1  UNL1        0.0297
     27 C          12.8763   37.4406   10.6292 C.3     1  UNL1        0.0196
     28 C          13.5614   36.2484    9.9788 C.3     1  UNL1        0.0722
     29 N          14.7829   36.6965    9.3191 N.3     1  UNL1       -0.2704
     30 C          14.5116   37.6793    8.2391 C.3     1  UNL1        0.0769
     31 C          13.2252   37.4043    7.3921 C.3     1  UNL1        0.0449
     32 C          12.0380   38.3357    7.6459 C.ar    1  UNL1       -0.0071
     33 C          10.9221   38.2548    8.5219 C.ar    1  UNL1        0.0431
     34 N          10.1927   39.4151    8.2985 N.ar    1  UNL1       -0.3560
     35 H           9.3517   39.6845    8.7900 H       1  UNL1        0.1657
     36 C          10.7272   40.1848    7.3024 C.ar    1  UNL1        0.0561
     37 C          10.2814   41.4042    6.7768 C.ar    1  UNL1        0.0169
     38 C          11.0285   41.9802    5.7472 C.ar    1  UNL1        0.0015
     39 C          12.1692   41.3520    5.2594 C.ar    1  UNL1        0.0001
     40 C          12.5997   40.1365    5.8055 C.ar    1  UNL1        0.0012
     41 C          11.8703   39.5396    6.8597 C.ar    1  UNL1        0.0127
     42 C          10.3769   37.1917    9.6081 C.3     1  UNL1        0.1437
     43 C          11.3793   37.1722   10.8683 C.3     1  UNL1        0.0218
     44 C          15.7451   37.1826   10.3478 C.3     1  UNL1        0.0993
     45 H          14.7199   40.0133   11.6158 H       1  UNL1        0.2103
     46 C          17.5225   37.5280   12.4734 C.3     1  UNL1        0.0025
     47 C          16.0881   37.9676   12.7629 C.3     1  UNL1        0.0283
     48 C           9.0266   37.8290   10.2094 C.2     1  UNL1        0.3253
     49 O           7.9108   37.6576    9.7598 O.2     1  UNL1       -0.2494
     50 O           9.2397   38.4018   11.4388 O.3     1  UNL1       -0.4439
     51 C           8.6479   39.6901   11.6426 C.3     1  UNL1        0.2556
     52 O           9.2098   34.7787   11.0172 O.3     1  UNL1       -0.4717
     53 C           9.7656   33.6689   11.7572 C.3     1  UNL1        0.2525
     54 C           6.6215   33.1141    5.4388 C.2     1  UNL1        0.3466
     55 O           6.6368   33.9709    6.3457 O.2     1  UNL1       -0.2473
     56 O           5.4868   32.6479    4.9017 O.3     1  UNL1       -0.4427
     57 C           4.4521   33.5584    4.5232 C.3     1  UNL1        0.2557
     58 C           7.4069   35.7631    3.7935 C.3     1  UNL1        0.0089
     59 C           7.8664   37.0006    4.5807 C.3     1  UNL1        0.0005
     60 O           8.7482   32.3905    2.4276 O.3     1  UNL1       -0.4488
     61 C           8.0029   31.6831    1.5063 C.2     1  UNL1        0.3175
     62 C           8.0517   32.3201    0.1445 C.3     1  UNL1        0.1212
     63 O           7.3632   30.6748    1.7306 O.2     1  UNL1       -0.2501
@<TRIPOS>BOND
     1    46    47    1
     2    24    26    1
     3    24    44    1
     4    24    47    1
     5    24    25    1
     6    25    45    1
     7    26    27    1
     8    27    28    1
     9    27    43    1
    10    28    29    1
    11    29    30    1
    12    29    44    1
    13    30    31    1
    14    31    32    1
    15    32    33   ar
    16    32    41   ar
    17    33    34   ar
    18    33    42    1
    19    34    36   ar
    20    34    35    1
    21    36    37   ar
    22    36    41   ar
    23    37    38   ar
    24    38    39   ar
    25    39    40   ar
    26    40    41   ar
    27    42    43    1
    28    42     1    1
    29    42    48    1
    30    48    49    2
    31    48    50    1
    32    50    51    1
    33     1     2   ar
    34     1     6   ar
    35     2     3   ar
    36     3     4   ar
    37     3    21    1
    38     4     5   ar
    39     4     7    1
    40     5     6   ar
    41     6    52    1
    42    52    53    1
    43     7    10    1
    44     7     8   am
    45     8     9    2
    46    10    11    1
    47    10    21    1
    48    11    13    1
    49    11    12    1
    50    11    54    1
    51    12    23    1
    52    54    55    2
    53    54    56    1
    54    56    57    1
    55    13    14    1
    56    13    60    1
    57    60    61    1
    58    61    62    1
    59    61    63    2
    60    14    15    1
    61    14    22    1
    62    14    58    1
    63    58    59    1
    64    15    16    2
    65    16    17    1
    66    17    18    1
    67    18    19    1
    68    18    22    1
    69    19    20    1
    70    21    20    1
    71    21    22    1
#	Name:			CHEMBL914
#	Creating user name:	trannguyen
#	Creation time:		Tue Feb  8 18:26:14 2022


#	Modifying user name:	trannguyen
#	Modification time:	Tue Feb  8 18:26:14 2022

@<TRIPOS>MOLECULE
CHEMBL914
 40 43 0 0 0
SMALL
GASTEIGER

@<TRIPOS>ATOM
      1 N           8.5277   34.0564    6.6262 N.3     1  UNL1       -0.2727
      2 C           9.2259   33.9171    5.3440 C.3     1  UNL1        0.0722
      3 C           8.8881   32.7109    4.4510 C.3     1  UNL1        0.0204
      4 C           7.4094   32.2684    4.4252 C.3     1  UNL1        0.0353
      5 C           6.9935   32.1780    5.9098 C.3     1  UNL1        0.0204
      6 C           7.1894   33.4732    6.6983 C.3     1  UNL1        0.0722
      7 C           6.4527   33.1063    3.4825 C.3     1  UNL1        0.1256
      8 O           6.5519   34.4832    3.8839 O.3     1  UNL1       -0.3786
      9 H           5.8741   34.9518    3.3615 H       1  UNL1        0.2111
     10 C           6.8942   33.0773    1.9799 C.ar    1  UNL1        0.0056
     11 C           7.4956   31.9287    1.4092 C.ar    1  UNL1       -0.0017
     12 C           7.9411   31.8938    0.0819 C.ar    1  UNL1       -0.0002
     13 C           7.7961   33.0099   -0.7278 C.ar    1  UNL1       -0.0000
     14 C           7.1702   34.1433   -0.2177 C.ar    1  UNL1       -0.0002
     15 C           6.7059   34.1693    1.1095 C.ar    1  UNL1       -0.0017
     16 C           4.9531   32.6992    3.6931 C.ar    1  UNL1        0.0056
     17 C           3.9518   33.6923    3.8236 C.ar    1  UNL1       -0.0017
     18 C           2.6032   33.3776    4.0361 C.ar    1  UNL1       -0.0002
     19 C           2.2049   32.0516    4.1217 C.ar    1  UNL1       -0.0000
     20 C           3.1623   31.0480    4.0233 C.ar    1  UNL1       -0.0002
     21 C           4.5184   31.3673    3.8297 C.ar    1  UNL1       -0.0017
     22 C           8.5568   35.4536    7.1396 C.3     1  UNL1        0.0722
     23 C           8.5046   35.5931    8.6791 C.3     1  UNL1        0.0202
     24 C           9.0145   34.3708    9.4620 C.3     1  UNL1        0.0352
     25 C           8.0302   33.9949   10.5968 C.3     1  UNL1        0.1328
     26 O           8.7421   33.1969   11.5489 O.3     1  UNL1       -0.3801
     27 H           8.1634   33.0948   12.3223 H       1  UNL1        0.2108
     28 C           4.4004   31.8582    9.4001 C.ar    1  UNL1       -0.0128
     29 C           4.4419   33.2576    9.4315 C.ar    1  UNL1       -0.0040
     30 C           5.6032   33.9439    9.7992 C.ar    1  UNL1       -0.0023
     31 C           6.7860   33.2619   10.1142 C.ar    1  UNL1        0.0042
     32 C           6.7867   31.8692    9.9512 C.ar    1  UNL1       -0.0023
     33 C           5.6151   31.1774    9.5999 C.ar    1  UNL1       -0.0040
     34 C           3.2592   29.6219    9.5252 C.3     1  UNL1        0.0155
     35 C           3.0739   31.1042    9.1683 C.3     1  UNL1        0.1082
     36 C           2.6167   31.1860    7.6885 C.3     1  UNL1        0.0155
     37 C           1.9059   31.6659   10.0128 C.2     1  UNL1        0.3166
     38 O           1.1168   32.4973    9.6424 O.2     1  UNL1       -0.2500
     39 O           1.8509   31.1284   11.2596 O.3     1  UNL1       -0.4800
     40 H           2.4964   30.4449   11.4533 H       1  UNL1        0.2951
@<TRIPOS>BOND
     1    34    35    1
     2    35    36    1
     3    35    37    1
     4    35    28    1
     5    37    38    2
     6    37    39    1
     7    39    40    1
     8    28    29   ar
     9    28    33   ar
    10    29    30   ar
    11    30    31   ar
    12    31    25    1
    13    31    32   ar
    14    25    26    1
    15    25    24    1
    16    26    27    1
    17    24    23    1
    18    23    22    1
    19    22     1    1
    20     1     2    1
    21     1     6    1
    22     2     3    1
    23     3     4    1
    24     4     7    1
    25     4     5    1
    26     7     8    1
    27     7    10    1
    28     7    16    1
    29     8     9    1
    30    10    11   ar
    31    10    15   ar
    32    11    12   ar
    33    12    13   ar
    34    13    14   ar
    35    14    15   ar
    36    16    17   ar
    37    16    21   ar
    38    17    18   ar
    39    18    19   ar
    40    19    20   ar
    41    20    21   ar
    42     5     6    1
    43    32    33   ar
#	Name:			CHEMBL917
#	Creating user name:	trannguyen
#	Creation time:		Tue Feb  8 18:26:14 2022


#	Modifying user name:	trannguyen
#	Modification time:	Tue Feb  8 18:26:14 2022

@<TRIPOS>MOLECULE
CHEMBL917
 20 21 0 0 0
SMALL
GASTEIGER

@<TRIPOS>ATOM
      1 O           2.2369   26.8590   11.1403 O.2     1  UNL1       -0.2646
      2 C           2.2661   27.9100   10.5174 C.ar    1  UNL1        0.2901
      3 N           1.1274   28.5700   10.1319 N.ar    1  UNL1       -0.2725
      4 H           0.2495   28.1377   10.3754 H       1  UNL1        0.1735
      5 C           1.0614   29.7330    9.4044 C.ar    1  UNL1        0.3323
      6 O          -0.0315   30.1921    9.0810 O.2     1  UNL1       -0.2464
      7 N           2.2843   30.3203    9.0817 N.ar    1  UNL1       -0.2548
      8 C           3.4812   29.7080    9.4255 C.ar    1  UNL1        0.1164
      9 C           3.5210   28.5672   10.1110 C.ar    1  UNL1        0.2130
     10 F           4.6773   27.9659   10.4450 F       1  UNL1       -0.1975
     11 C1*         2.2557   31.5334    8.2573 C.3     1  UNL1        0.2106
     12 C2*         3.6357   32.0547    7.8681 C.3     1  UNL1        0.0858
     13 C3*         3.3450   32.8233    6.6029 C.3     1  UNL1        0.1445
     14 O3*         2.8953   34.1354    6.9501 O.3     1  UNL1       -0.3817
     15 C4*         2.1951   32.0468    5.9656 C.3     1  UNL1        0.1731
     16 O4*         1.5625   31.2839    7.0198 O.3     1  UNL1       -0.3327
     17 H3*         3.6660   34.6311    7.2813 H       1  UNL1        0.2104
     18 C5*         2.6649   31.0643    4.8893 C.3     1  UNL1        0.1692
     19 O5*         2.4840   31.6048    3.5818 O.3     1  UNL1       -0.3794
     20 H5*         2.9298   32.4716    3.5833 H       1  UNL1        0.2105
@<TRIPOS>BOND
     1     1     2    2
     2     2     3   ar
     3     2     9   ar
     4     3     4    1
     5     3     5   ar
     6     5     6    2
     7     5     7   ar
     8     7    11    1
     9     7     8   ar
    10    11    12    1
    11    11    16    1
    12    12    13    1
    13    13    14    1
    14    13    15    1
    15    14    17    1
    16    15    16    1
    17    15    18    1
    18    18    19    1
    19    19    20    1
    20     8     9   ar
    21     9    10    1
#	Name:			CHEMBL918
#	Creating user name:	trannguyen
#	Creation time:		Tue Feb  8 18:26:14 2022


#	Modifying user name:	trannguyen
#	Modification time:	Tue Feb  8 18:26:14 2022

@<TRIPOS>MOLECULE
CHEMBL918
 16 16 0 0 0
SMALL
GASTEIGER

@<TRIPOS>ATOM
      1 N           3.3028   34.8007    8.7859 N.am    1  UNL1       -0.3130
      2 C           2.7127   33.6511    9.2339 C.2     1  UNL1        0.3033
      3 O           2.6575   33.4065   10.4231 O.2     1  UNL1       -0.2527
      4 N           2.2238   32.8883    8.1999 N.am    1  UNL1       -0.2396
      5 C           1.5601   31.6834    8.1954 C.2     1  UNL1        0.2337
      6 O           1.1961   31.2306    7.1044 O.2     1  UNL1       -0.2743
      7 H           3.7319   35.3528    9.5198 H       1  UNL1        0.1465
      8 H           3.8092   34.7892    7.9130 H       1  UNL1        0.1465
      9 H           2.2801   33.2950    7.2801 H       1  UNL1        0.1591
     10 C           1.2952   30.9334    9.4867 C.3     1  UNL1        0.1118
     11 C           2.2511   29.7897    9.7344 C.ar    1  UNL1       -0.0131
     12 C           3.6343   30.0137    9.7231 C.ar    1  UNL1       -0.0038
     13 C           4.5283   28.9624    9.9360 C.ar    1  UNL1       -0.0003
     14 C           4.0507   27.6721   10.1535 C.ar    1  UNL1       -0.0000
     15 C           2.6782   27.4319   10.1539 C.ar    1  UNL1       -0.0003
     16 C           1.7821   28.4840    9.9454 C.ar    1  UNL1       -0.0038
@<TRIPOS>BOND
     1     1     2   am
     2     1     7    1
     3     1     8    1
     4     2     3    2
     5     2     4   am
     6     4     5   am
     7     4     9    1
     8     5     6    2
     9     5    10    1
    10    10    11    1
    11    11    12   ar
    12    11    16   ar
    13    12    13   ar
    14    13    14   ar
    15    14    15   ar
    16    15    16   ar
#	Name:			CHEMBL91
#	Creating user name:	trannguyen
#	Creation time:		Tue Feb  8 18:26:14 2022


#	Modifying user name:	trannguyen
#	Modification time:	Tue Feb  8 18:26:14 2022

@<TRIPOS>MOLECULE
CHEMBL91
 25 27 0 0 0
SMALL
GASTEIGER

@<TRIPOS>ATOM
      1 C           2.8577   31.4073    9.5798 C.3     1  UNL1        0.1612
      2 C           2.9078   31.7385    8.0960 C.ar    1  UNL1        0.0171
      3 C           1.9081   31.2343    7.2388 C.ar    1  UNL1       -0.0002
      4 C           1.8763   31.5879    5.8923 C.ar    1  UNL1        0.0112
      5 C           2.8919   32.3781    5.3654 C.ar    1  UNL1        0.0585
      6 CL          2.8469   32.8267    3.7070 Cl      1  UNL1       -0.0822
      7 C           3.9308   32.8275    6.1739 C.ar    1  UNL1        0.0225
      8 C           3.9222   32.5385    7.5390 C.ar    1  UNL1        0.0568
      9 CL          5.1793   33.2390    8.4949 Cl      1  UNL1       -0.0825
     10 O           2.6354   32.6056   10.3611 O.3     1  UNL1       -0.3450
     11 C           1.2926   33.1209   10.3146 C.3     1  UNL1        0.1698
     12 CL          1.1298   39.0910    9.4492 Cl      1  UNL1       -0.0822
     13 C           1.2212   37.4155    9.8272 C.ar    1  UNL1        0.0585
     14 C           2.3689   36.7002    9.5052 C.ar    1  UNL1        0.0112
     15 C           2.4123   35.3227    9.7253 C.ar    1  UNL1       -0.0001
     16 C           1.3012   34.6363   10.2443 C.ar    1  UNL1        0.0179
     17 C           0.1845   35.3957   10.6421 C.ar    1  UNL1        0.0569
     18 CL         -1.1872   34.6608   11.3950 Cl      1  UNL1       -0.0825
     19 C           0.1403   36.7779   10.4276 C.ar    1  UNL1        0.0225
     20 C           1.6961   30.4352    9.9047 C.3     1  UNL1        0.1416
     21 N           2.0908   29.1090   10.3343 N.ar    1  UNL1       -0.3050
     22 C           3.1508   28.3863    9.8607 C.ar    1  UNL1        0.0981
     23 C           3.1202   27.2057   10.5536 C.ar    1  UNL1        0.1193
     24 N           2.0587   27.1807   11.4202 N.ar    1  UNL1       -0.2223
     25 C           1.4627   28.3331   11.2656 C.ar    1  UNL1        0.1787
@<TRIPOS>BOND
     1    12    13    1
     2    13    14   ar
     3    13    19   ar
     4    14    15   ar
     5    15    16   ar
     6    16    11    1
     7    16    17   ar
     8    11    10    1
     9    10     1    1
    10     1    20    1
    11     1     2    1
    12    20    21    1
    13    21    22   ar
    14    21    25   ar
    15    22    23   ar
    16    23    24   ar
    17    24    25   ar
    18     2     3   ar
    19     2     8   ar
    20     3     4   ar
    21     4     5   ar
    22     5     6    1
    23     5     7   ar
    24     7     8   ar
    25     8     9    1
    26    17    18    1
    27    17    19   ar
#	Name:			CHEMBL923
#	Creating user name:	trannguyen
#	Creation time:		Tue Feb  8 18:26:14 2022


#	Modifying user name:	trannguyen
#	Modification time:	Tue Feb  8 18:26:14 2022

@<TRIPOS>MOLECULE
CHEMBL923
 22 22 0 0 0
SMALL
GASTEIGER

@<TRIPOS>ATOM
      1 C           2.0893   29.9097   10.0763 C.3     1  UNL1        0.2787
      2 O           2.1966   30.9566   11.0988 O.3     1  UNL1       -0.3665
      3 H           1.7195   30.5652   11.8675 H       1  UNL1        0.2117
      4 O           2.3115   26.9024   11.5903 O.2     1  UNL1       -0.2551
      5 P           2.2098   28.2787   10.8975 P.3     1  UNL1        0.3719
      6 O           1.6690   27.5574    9.5093 O.3     1  UNL1       -0.3217
      7 O           0.7071   28.4938   11.5377 O.3     1  UNL1       -0.3217
      8 H           1.5816   26.6009    9.7152 H       1  UNL1        0.2198
      9 H           0.4343   27.6552   11.9630 H       1  UNL1        0.2198
     10 P           0.4931   30.2721    9.2294 P.3     1  UNL1        0.3719
     11 O          -0.6507   29.3311    9.4035 O.2     1  UNL1       -0.2551
     12 O           0.0565   31.7702    9.6202 O.3     1  UNL1       -0.3217
     13 O           0.8257   30.5044    7.6709 O.3     1  UNL1       -0.3217
     14 H          -0.8691   31.9558    9.3761 H       1  UNL1        0.2198
     15 H           0.0285   30.4854    7.1111 H       1  UNL1        0.2198
     16 C           3.2461   30.1571    9.0646 C.3     1  UNL1        0.0790
     17 C           4.4866   30.8550    9.5775 C.ar    1  UNL1        0.0006
     18 C           5.5438   30.1213   10.1283 C.ar    1  UNL1       -0.0010
     19 C           6.6919   30.7737   10.5789 C.ar    1  UNL1        0.0204
     20 C           6.7519   32.1508   10.4713 C.ar    1  UNL1        0.0989
     21 N           5.7704   32.8938    9.9261 N.ar    1  UNL1       -0.2426
     22 C           4.6834   32.2306    9.4709 C.ar    1  UNL1        0.0947
@<TRIPOS>BOND
     1     4     5    2
     2     5     6    1
     3     5     7    1
     4     5     1    1
     5     6     8    1
     6     7     9    1
     7     1     2    1
     8     1    16    1
     9     1    10    1
    10     2     3    1
    11    16    17    1
    12    17    18   ar
    13    17    22   ar
    14    18    19   ar
    15    19    20   ar
    16    20    21   ar
    17    21    22   ar
    18    10    11    2
    19    10    12    1
    20    10    13    1
    21    12    14    1
    22    13    15    1
#	Name:			CHEMBL92401
#	Creating user name:	trannguyen
#	Creation time:		Tue Feb  8 18:26:14 2022


#	Modifying user name:	trannguyen
#	Modification time:	Tue Feb  8 18:26:14 2022

@<TRIPOS>MOLECULE
CHEMBL92401
 15 15 0 0 0
SMALL
GASTEIGER

@<TRIPOS>ATOM
      1 N           1.8165   31.2370    7.4991 N.am    1  UNL1       -0.2463
      2 C           1.0564   30.9240    8.6193 C.2     1  UNL1        0.2589
      3 O          -0.0484   31.4067    8.8387 O.2     1  UNL1       -0.2688
      4 H           2.6994   30.7769    7.3061 H       1  UNL1        0.1693
      5 C           1.6286   29.8997    9.5401 C.ar    1  UNL1        0.0577
      6 C           3.0191   29.8261    9.6477 C.ar    1  UNL1        0.0252
      7 C           3.5592   28.9115   10.5330 C.ar    1  UNL1        0.0990
      8 N           2.8164   28.0766   11.2896 N.ar    1  UNL1       -0.2423
      9 C           1.4764   28.1466   11.1463 C.ar    1  UNL1        0.0990
     10 C           0.8372   29.0310   10.2930 C.ar    1  UNL1        0.0252
     11 N           1.2912   32.0961    6.5019 N.3     1  UNL1       -0.2312
     12 H           0.5220   31.5866    6.0443 H       1  UNL1        0.1450
     13 C           2.7603   31.1300    4.7897 C.3     1  UNL1        0.0188
     14 C           2.3006   32.4207    5.4736 C.3     1  UNL1        0.0718
     15 C           1.7415   33.3880    4.4266 C.3     1  UNL1        0.0188
@<TRIPOS>BOND
     1    13    14    1
     2    14    15    1
     3    14    11    1
     4    11     1    1
     5    11    12    1
     6     1     2   am
     7     1     4    1
     8     2     3    2
     9     2     5    1
    10     5     6   ar
    11     5    10   ar
    12     6     7   ar
    13     7     8   ar
    14     8     9   ar
    15     9    10   ar
#	Name:			CHEMBL926
#	Creating user name:	trannguyen
#	Creation time:		Tue Feb  8 18:26:14 2022


#	Modifying user name:	trannguyen
#	Modification time:	Tue Feb  8 18:26:14 2022

@<TRIPOS>MOLECULE
CHEMBL926
 26 27 0 0 0
SMALL
GASTEIGER

@<TRIPOS>ATOM
      1 N           5.3979   33.2540    7.3153 N.3     1  UNL1       -0.2982
      2 H           5.3336   34.1177    7.8443 H       1  UNL1        0.1232
      3 C           7.8235   32.6500    7.4152 C.3     1  UNL1        0.0171
      4 C           6.6239   33.0708    6.5569 C.3     1  UNL1        0.0544
      5 C           6.4925   32.0681    5.4065 C.3     1  UNL1        0.0204
      6 C           5.8532   32.4494    4.0661 C.3     1  UNL1        0.0277
      7 C           4.3372   32.4470    4.0080 C.ar    1  UNL1       -0.0219
      8 C           3.6038   31.2973    4.3395 C.ar    1  UNL1       -0.0012
      9 C           2.2664   31.4262    4.7441 C.ar    1  UNL1        0.0363
     10 C           1.6375   32.6641    4.7259 C.ar    1  UNL1        0.1337
     11 O           0.3680   32.7652    5.2066 O.3     1  UNL1       -0.5055
     12 C           2.3074   33.7856    4.2822 C.ar    1  UNL1        0.0363
     13 C           3.6442   33.6666    3.9352 C.ar    1  UNL1       -0.0012
     14 H          -0.0692   33.4915    4.7282 H       1  UNL1        0.2922
     15 C           4.6654   32.1022    7.8720 C.3     1  UNL1        0.0733
     16 C           3.1487   32.0970    8.2926 C.3     1  UNL1        0.0435
     17 C           2.3842   30.9233    8.8379 C.ar    1  UNL1       -0.0176
     18 C           0.9989   30.7920    8.6944 C.ar    1  UNL1       -0.0009
     19 C           0.2708   29.7419    9.2699 C.ar    1  UNL1        0.0394
     20 C           0.9393   28.9191   10.1949 C.ar    1  UNL1        0.1675
     21 O           0.2342   28.0190   10.9271 O.3     1  UNL1       -0.5029
     22 C           2.2893   29.0771   10.3740 C.ar    1  UNL1        0.1672
     23 O           2.9031   28.4344   11.4560 O.3     1  UNL1       -0.5029
     24 C           3.0399   29.9239    9.5838 C.ar    1  UNL1        0.0356
     25 H           0.8944   27.6946   11.5971 H       1  UNL1        0.2923
     26 H           3.6987   28.9159   11.6483 H       1  UNL1        0.2923
@<TRIPOS>BOND
     1     3     4    1
     2     4     5    1
     3     4     1    1
     4     5     6    1
     5     6     7    1
     6     7     8   ar
     7     7    13   ar
     8     8     9   ar
     9     9    10   ar
    10    10    11    1
    11    10    12   ar
    12    11    14    1
    13    12    13   ar
    14     1    15    1
    15     1     2    1
    16    15    16    1
    17    16    17    1
    18    17    18   ar
    19    17    24   ar
    20    18    19   ar
    21    19    20   ar
    22    20    21    1
    23    20    22   ar
    24    21    25    1
    25    22    23    1
    26    22    24   ar
    27    23    26    1
#	Name:			CHEMBL932
#	Creating user name:	trannguyen
#	Creation time:		Tue Feb  8 18:26:14 2022


#	Modifying user name:	trannguyen
#	Modification time:	Tue Feb  8 18:26:14 2022

@<TRIPOS>MOLECULE
CHEMBL932
 40 43 0 0 0
SMALL
GASTEIGER

@<TRIPOS>ATOM
      1 C           7.4774   33.4909    3.1758 C.ar    1  UNL1        0.2216
      2 N           6.1537   33.3737    3.4039 N.ar    1  UNL1       -0.1971
      3 C           5.7080   33.1004    4.6490 C.ar    1  UNL1        0.1540
      4 C           6.5911   32.9035    5.7314 C.ar    1  UNL1        0.1361
      5 N           6.2178   32.5312    6.9658 N.ar    1  UNL1       -0.2092
      6 C           7.0612   32.3633    7.9678 C.ar    1  UNL1        0.2216
      7 N           8.3504   32.6028    7.7929 N.ar    1  UNL1       -0.1971
      8 C           8.7596   32.9552    6.5458 C.ar    1  UNL1        0.1540
      9 C           7.9281   33.1276    5.4255 C.ar    1  UNL1        0.1361
     10 N           8.3513   33.4359    4.1788 N.ar    1  UNL1       -0.2092
     11 N           4.2855   32.9372    4.8012 N.pl3   1  UNL1       -0.2919
     12 C           3.8179   31.5530    4.6105 C.3     1  UNL1        0.0922
     13 C           2.3472   31.4288    5.0335 C.3     1  UNL1        0.0215
     14 C           1.4608   32.4347    4.3059 C.3     1  UNL1        0.0035
     15 C           1.9913   33.8324    4.5069 C.3     1  UNL1        0.0215
     16 C           3.4494   33.9205    4.1075 C.3     1  UNL1        0.0922
     17 N          10.1717   33.1116    6.3657 N.pl3   1  UNL1       -0.2919
     18 C          10.8593   31.8169    6.3612 C.3     1  UNL1        0.0922
     19 C          12.2953   32.0504    5.9100 C.3     1  UNL1        0.0215
     20 C          12.9891   33.0580    6.8262 C.3     1  UNL1        0.0035
     21 C          12.1712   34.3449    6.9666 C.3     1  UNL1        0.0215
     22 C          10.7215   34.0507    7.3518 C.3     1  UNL1        0.0922
     23 N           7.9503   33.6712    1.8684 N.pl3   1  UNL1       -0.2730
     24 C           7.7152   32.5101    0.9706 C.3     1  UNL1        0.1254
     25 O           7.2588   30.1892    1.6163 O.3     1  UNL1       -0.3802
     26 C           8.2653   31.1945    1.5475 C.3     1  UNL1        0.1586
     27 H           7.5932   29.3890    1.1735 H       1  UNL1        0.2105
     28 C           7.6937   35.0094    1.2824 C.3     1  UNL1        0.1254
     29 C           7.2448   34.8728   -0.1814 C.3     1  UNL1        0.1586
     30 O           5.8244   34.7904   -0.2778 O.3     1  UNL1       -0.3802
     31 H           5.5957   34.1687    0.4383 H       1  UNL1        0.2105
     32 N           6.6154   31.9542    9.2269 N.pl3   1  UNL1       -0.2730
     33 C           5.4128   31.0734    9.1688 C.3     1  UNL1        0.1254
     34 C           5.4961   29.9138   10.1812 C.3     1  UNL1        0.1586
     35 O           4.7207   28.8001    9.7362 O.3     1  UNL1       -0.3802
     36 H           3.9521   29.1773    9.2673 H       1  UNL1        0.2105
     37 C           6.4563   33.1657   10.0709 C.3     1  UNL1        0.1254
     38 C           7.4568   33.1563   11.2352 C.3     1  UNL1        0.1586
     39 O           7.0584   32.2998   12.3003 O.3     1  UNL1       -0.3802
     40 H           6.2491   32.6949   12.6769 H       1  UNL1        0.2105
@<TRIPOS>BOND
     1    25    26    1
     2    25    27    1
     3    26    24    1
     4    24    23    1
     5    23    28    1
     6    23     1    1
     7    28    29    1
     8    29    30    1
     9    30    31    1
    10     1     2   ar
    11     1    10   ar
    12     2     3   ar
    13     3    11    1
    14     3     4   ar
    15    11    12    1
    16    11    16    1
    17    12    13    1
    18    13    14    1
    19    14    15    1
    20    15    16    1
    21     4     5   ar
    22     4     9   ar
    23     5     6   ar
    24     6    32    1
    25     6     7   ar
    26    32    33    1
    27    32    37    1
    28    33    34    1
    29    34    35    1
    30    35    36    1
    31    37    38    1
    32    38    39    1
    33    39    40    1
    34     7     8   ar
    35     8    17    1
    36     8     9   ar
    37    17    18    1
    38    17    22    1
    39    18    19    1
    40    19    20    1
    41    20    21    1
    42    21    22    1
    43     9    10   ar
#	Name:			CHEMBL934
#	Creating user name:	trannguyen
#	Creation time:		Tue Feb  8 18:26:14 2022


#	Modifying user name:	trannguyen
#	Modification time:	Tue Feb  8 18:26:14 2022

@<TRIPOS>MOLECULE
CHEMBL934
 17 18 0 0 0
SMALL
GASTEIGER

@<TRIPOS>ATOM
      1 C           4.6710   31.7918    8.4455 C.3     1  UNL1        0.0122
      2 C           3.1898   31.4565    8.7378 C.3     1  UNL1        0.0758
      3 C           2.6505   32.6447    9.5800 C.3     1  UNL1        0.0122
      4 C           2.9827   30.1782    9.5584 C.ar    1  UNL1        0.0033
      5 C           3.8666   29.0883    9.5175 C.ar    1  UNL1       -0.0007
      6 C           3.6347   27.9589   10.2990 C.ar    1  UNL1        0.0204
      7 C           2.5238   27.9470   11.1192 C.ar    1  UNL1        0.0989
      8 N           1.6429   28.9645   11.1914 N.ar    1  UNL1       -0.2426
      9 C           1.8895   30.0493   10.4183 C.ar    1  UNL1        0.0950
     10 C           2.4060   31.4230    7.3948 C.2     1  UNL1        0.1775
     11 O           1.2815   30.9359    7.3148 O.2     1  UNL1       -0.2910
     12 C           2.9705   32.0353    6.1566 C.ar    1  UNL1        0.0541
     13 C           3.3204   31.3281    5.0017 C.ar    1  UNL1        0.0060
     14 C           3.8064   32.0163    3.8897 C.ar    1  UNL1        0.0208
     15 C           3.9314   33.3922    3.9629 C.ar    1  UNL1        0.0989
     16 N           3.6101   34.1098    5.0613 N.ar    1  UNL1       -0.2422
     17 C           3.1306   33.4185    6.1223 C.ar    1  UNL1        0.1017
@<TRIPOS>BOND
     1     1     2    1
     2     2     3    1
     3     2    10    1
     4     2     4    1
     5    10    11    2
     6    10    12    1
     7    12    13   ar
     8    12    17   ar
     9    13    14   ar
    10    14    15   ar
    11    15    16   ar
    12    16    17   ar
    13     4     5   ar
    14     4     9   ar
    15     5     6   ar
    16     6     7   ar
    17     7     8   ar
    18     8     9   ar
#	Name:			CHEMBL93645
#	Creating user name:	trannguyen
#	Creation time:		Tue Feb  8 18:26:14 2022


#	Modifying user name:	trannguyen
#	Modification time:	Tue Feb  8 18:26:14 2022

@<TRIPOS>MOLECULE
CHEMBL93645
 25 26 0 0 0
SMALL
GASTEIGER

@<TRIPOS>ATOM
      1 C           2.9260   31.8478    7.2106 C.ar    1  UNL1        0.0023
      2 C           2.0991   31.2055    6.2621 C.ar    1  UNL1       -0.0025
      3 C           2.4531   31.1273    4.9180 C.ar    1  UNL1       -0.0002
      4 C           3.6508   31.6797    4.4935 C.ar    1  UNL1        0.0013
      5 C           4.4758   32.3328    5.4113 C.ar    1  UNL1        0.0143
      6 C           4.1204   32.4645    6.7663 C.ar    1  UNL1        0.0448
      7 N           4.8801   33.2802    7.6298 N.pl3   1  UNL1       -0.3114
      8 H           4.5486   34.2355    7.7017 H       1  UNL1        0.1523
      9 C           5.8814   33.0007    8.5989 C.ar    1  UNL1        0.0697
     10 C           5.7339   33.5553    9.8945 C.ar    1  UNL1        0.0718
     11 CL          4.3626   34.5487   10.2749 Cl      1  UNL1       -0.0809
     12 C           6.6823   33.3558   10.9053 C.ar    1  UNL1        0.0127
     13 C           7.8062   32.5783   10.6567 C.ar    1  UNL1        0.0018
     14 C           7.9773   32.0085    9.3981 C.ar    1  UNL1        0.0127
     15 C           7.0320   32.2143    8.3773 C.ar    1  UNL1        0.0718
     16 CL          7.4711   31.5799    6.8258 Cl      1  UNL1       -0.0809
     17 C           2.4356   31.8968    8.6509 C.3     1  UNL1        0.1371
     18 C           1.1664   31.0934    8.8957 C.2     1  UNL1        0.3220
     19 O           0.0301   31.5411    8.8686 O.2     1  UNL1       -0.2497
     20 O           1.4594   29.7891    9.1953 O.3     1  UNL1       -0.4359
     21 C           1.9873   29.5858   10.5213 C.3     1  UNL1        0.3165
     22 O           1.8548   27.7347   12.0713 O.2     1  UNL1       -0.2461
     23 C           1.3258   28.3943   11.2007 C.2     1  UNL1        0.3590
     24 O           0.0770   28.1273   10.7441 O.3     1  UNL1       -0.4776
     25 H          -0.1883   28.7483   10.0382 H       1  UNL1        0.2952
@<TRIPOS>BOND
     1    22    23    2
     2    23    24    1
     3    23    21    1
     4    24    25    1
     5    21    20    1
     6    20    18    1
     7    18    19    2
     8    18    17    1
     9    17     1    1
    10     1     2   ar
    11     1     6   ar
    12     2     3   ar
    13     3     4   ar
    14     4     5   ar
    15     5     6   ar
    16     6     7    1
    17     7     9    1
    18     7     8    1
    19     9    10   ar
    20     9    15   ar
    21    10    11    1
    22    10    12   ar
    23    12    13   ar
    24    13    14   ar
    25    14    15   ar
    26    15    16    1
#	Name:			CHEMBL936
#	Creating user name:	trannguyen
#	Creation time:		Tue Feb  8 18:26:14 2022


#	Modifying user name:	trannguyen
#	Modification time:	Tue Feb  8 18:26:14 2022

@<TRIPOS>MOLECULE
CHEMBL936
 24 26 0 0 0
SMALL
GASTEIGER

@<TRIPOS>ATOM
      1 O           6.2235   34.6454    4.1079 O.3     1  UNL1       -0.3786
      2 C           6.1809   33.2470    3.7503 C.3     1  UNL1        0.1257
      3 H           5.6785   34.7394    4.9068 H       1  UNL1        0.2111
      4 C           4.7002   32.8047    3.8533 C.ar    1  UNL1        0.0056
      5 C           4.3604   31.4421    3.9241 C.ar    1  UNL1       -0.0017
      6 C           3.0320   31.0281    4.0767 C.ar    1  UNL1       -0.0002
      7 C           2.0144   31.9776    4.1839 C.ar    1  UNL1       -0.0000
      8 C           2.3255   33.3274    4.1365 C.ar    1  UNL1       -0.0002
      9 C           3.6505   33.7424    3.9694 C.ar    1  UNL1       -0.0017
     10 C           6.7287   33.0981    2.3174 C.ar    1  UNL1        0.0056
     11 C           6.5325   34.1042    1.3522 C.ar    1  UNL1       -0.0017
     12 C           7.0295   33.9726    0.0513 C.ar    1  UNL1       -0.0002
     13 C           7.7214   32.8243   -0.3200 C.ar    1  UNL1       -0.0000
     14 C           7.9340   31.8167    0.6145 C.ar    1  UNL1       -0.0002
     15 C           7.4563   31.9598    1.9202 C.ar    1  UNL1       -0.0017
     16 C           7.0854   32.5153    4.7914 C.3     1  UNL1        0.0368
     17 C           7.0136   33.0426    6.2357 C.3     1  UNL1        0.0204
     18 C           6.1992   32.1300    7.1729 C.3     1  UNL1        0.0722
     19 N           5.3462   32.8354    8.1470 N.3     1  UNL1       -0.2727
     20 C           3.9384   32.9502    7.7388 C.3     1  UNL1        0.0721
     21 C           3.1971   31.6130    7.6833 C.3     1  UNL1        0.0174
     22 C           3.3649   30.7767    8.9517 C.3     1  UNL1        0.0029
     23 C           4.7746   30.8189    9.5388 C.3     1  UNL1        0.0174
     24 C           5.4020   32.2132    9.4802 C.3     1  UNL1        0.0721
@<TRIPOS>BOND
     1     1     2    1
     2     1     3    1
     3     2    16    1
     4     2     4    1
     5     2    10    1
     6    16    17    1
     7    17    18    1
     8    18    19    1
     9    19    20    1
    10    19    24    1
    11    20    21    1
    12    21    22    1
    13    22    23    1
    14    23    24    1
    15     4     5   ar
    16     4     9   ar
    17     5     6   ar
    18     6     7   ar
    19     7     8   ar
    20     8     9   ar
    21    10    11   ar
    22    10    15   ar
    23    11    12   ar
    24    12    13   ar
    25    13    14   ar
    26    14    15   ar
#	Name:			CHEMBL93
#	Creating user name:	trannguyen
#	Creation time:		Tue Feb  8 18:26:14 2022


#	Modifying user name:	trannguyen
#	Modification time:	Tue Feb  8 18:26:14 2022

@<TRIPOS>MOLECULE
CHEMBL93
 19 20 0 0 0
SMALL
GASTEIGER

@<TRIPOS>ATOM
      1 C           1.7442   33.1495   10.2498 C.3     1  UNL1        0.0296
      2 C           1.3530   32.0375    9.2745 C.3     1  UNL1        0.1329
      3 C           2.2339   32.0351    8.0394 C.ar    1  UNL1        0.0277
      4 C           1.9986   31.4736    6.7999 C.ar    1  UNL1        0.0044
      5 C           3.0825   31.6395    5.8755 C.ar    1  UNL1        0.0062
      6 C           3.2164   31.2109    4.5331 C.ar    1  UNL1        0.0005
      7 C           4.3899   31.4693    3.8193 C.ar    1  UNL1        0.0000
      8 C           5.4396   32.1471    4.4227 C.ar    1  UNL1        0.0005
      9 C           5.3341   32.5882    5.7452 C.ar    1  UNL1        0.0065
     10 C           4.1452   32.3308    6.4591 C.ar    1  UNL1        0.0292
     11 S           3.7773   32.7811    8.0810 S.2     1  UNL1       -0.0896
     12 N           1.3692   30.7017    9.8921 N.am    1  UNL1       -0.1536
     13 O           1.9061   30.6660   11.2090 O.3     1  UNL1       -0.2903
     14 C           0.3482   29.7974    9.6590 C.2     1  UNL1        0.3234
     15 N           0.4480   28.6563   10.4022 N.am    1  UNL1       -0.3116
     16 O          -0.5330   29.9239    8.8243 O.2     1  UNL1       -0.2507
     17 H           2.8223   30.3896   11.0218 H       1  UNL1        0.2417
     18 H           0.9555   28.7237   11.2715 H       1  UNL1        0.1465
     19 H          -0.3275   28.0120   10.3419 H       1  UNL1        0.1465
@<TRIPOS>BOND
     1     1     2    1
     2     2     3    1
     3     2    12    1
     4     3     4   ar
     5     3    11   ar
     6     4     5   ar
     7     5     6   ar
     8     5    10   ar
     9     6     7   ar
    10     7     8   ar
    11     8     9   ar
    12     9    10   ar
    13    10    11   ar
    14    12    13    1
    15    12    14   am
    16    13    17    1
    17    14    15   am
    18    14    16    2
    19    15    18    1
    20    15    19    1
#	Name:			CHEMBL940
#	Creating user name:	trannguyen
#	Creation time:		Tue Feb  8 18:26:14 2022


#	Modifying user name:	trannguyen
#	Modification time:	Tue Feb  8 18:26:14 2022

@<TRIPOS>MOLECULE
CHEMBL940
 15 15 0 0 0
SMALL
GASTEIGER

@<TRIPOS>ATOM
      1 C           2.3854   29.8530    9.5454 C.3     1  UNL1        0.0249
      2 C           1.7675   30.7439   10.6609 C.3     1  UNL1        0.0019
      3 C           1.7050   32.2387   10.3345 C.3     1  UNL1        0.0001
      4 C           1.0548   32.5168    8.9863 C.3     1  UNL1        0.0000
      5 C           1.7151   31.7176    7.8725 C.3     1  UNL1        0.0001
      6 C           1.7208   30.2206    8.1841 C.3     1  UNL1        0.0019
      7 N           4.5941   29.6339   10.7355 N.3     1  UNL1       -0.3211
      8 C           3.9261   30.0649    9.5019 C.3     1  UNL1        0.0656
      9 H           5.5868   29.8735   10.6693 H       1  UNL1        0.1189
     10 H           4.5955   28.6091   10.7574 H       1  UNL1        0.1189
     11 C           2.0659   28.3558    9.8386 C.3     1  UNL1        0.1107
     12 C           1.4681   28.0732   11.1983 C.2     1  UNL1        0.3138
     13 O           2.1271   28.0129   12.2343 O.2     1  UNL1       -0.2503
     14 O           0.1308   27.8899   11.1832 O.3     1  UNL1       -0.4802
     15 H          -0.2430   27.9135   10.2748 H       1  UNL1        0.2951
@<TRIPOS>BOND
     1     7     8    1
     2     7     9    1
     3     7    10    1
     4     8     1    1
     5     1    11    1
     6     1     2    1
     7     1     6    1
     8    11    12    1
     9    12    13    2
    10    12    14    1
    11    14    15    1
    12     2     3    1
    13     3     4    1
    14     4     5    1
    15     5     6    1
#	Name:			CHEMBL9419
#	Creating user name:	trannguyen
#	Creation time:		Tue Feb  8 18:26:14 2022


#	Modifying user name:	trannguyen
#	Modification time:	Tue Feb  8 18:26:14 2022

@<TRIPOS>MOLECULE
CHEMBL9419
 13 13 0 0 0
SMALL
GASTEIGER

@<TRIPOS>ATOM
      1 C           2.3864   30.0618   10.1653 C.ar    1  UNL1        0.0533
      2 C           3.7370   30.1432    9.8194 C.ar    1  UNL1        0.0149
      3 C           4.5364   28.9941    9.7986 C.ar    1  UNL1        0.0044
      4 C           3.9939   27.7528   10.1245 C.ar    1  UNL1        0.0367
      5 C           2.6506   27.6733   10.4696 C.ar    1  UNL1        0.1349
      6 O           2.0711   26.4826   10.7977 O.3     1  UNL1       -0.5055
      7 C           1.8480   28.8112   10.4922 C.ar    1  UNL1        0.0513
      8 H           2.7451   25.7850   10.7402 H       1  UNL1        0.2922
      9 C           0.6401   33.4050   10.2753 C.3     1  UNL1        0.0949
     10 C           1.8535   32.5092   10.2513 C.2     1  UNL1        0.2266
     11 O           2.9827   32.9866   10.2430 O.2     1  UNL1       -0.2748
     12 N           1.5140   31.1696   10.2092 N.am    1  UNL1       -0.2838
     13 H           0.5259   30.9498   10.2013 H       1  UNL1        0.1549
@<TRIPOS>BOND
     1     9    10    1
     2    10    11    2
     3    10    12   am
     4    12     1    1
     5    12    13    1
     6     1     2   ar
     7     1     7   ar
     8     2     3   ar
     9     3     4   ar
    10     4     5   ar
    11     5     6    1
    12     5     7   ar
    13     6     8    1
#	Name:			CHEMBL941
#	Creating user name:	trannguyen
#	Creation time:		Tue Feb  8 18:26:14 2022


#	Modifying user name:	trannguyen
#	Modification time:	Tue Feb  8 18:26:14 2022

@<TRIPOS>MOLECULE
CHEMBL941
 39 43 0 0 0
SMALL
GASTEIGER

@<TRIPOS>ATOM
      1 C           9.0395   32.2241    9.5052 C.3     1  UNL1        0.0323
      2 C           8.8639   32.4724    8.0322 C.ar    1  UNL1       -0.0083
      3 C           9.9705   32.2429    7.1965 C.ar    1  UNL1       -0.0018
      4 C           9.8700   32.3737    5.8138 C.ar    1  UNL1        0.0144
      5 C           8.6662   32.7519    5.2393 C.ar    1  UNL1        0.0518
      6 C           7.5704   33.0207    6.0700 C.ar    1  UNL1        0.0290
      7 C           7.6309   32.8645    7.4673 C.ar    1  UNL1        0.0477
      8 N           8.4701   32.8684    3.8490 N.am    1  UNL1       -0.2803
      9 C           7.3272   32.5263    3.1463 C.2     1  UNL1        0.2495
     10 O           6.3044   32.0377    3.6137 O.2     1  UNL1       -0.2698
     11 H           9.2330   33.2972    3.3449 H       1  UNL1        0.1552
     12 C           7.3676   32.8001    1.6808 C.ar    1  UNL1        0.0537
     13 C           7.9974   31.9357    0.7791 C.ar    1  UNL1        0.0042
     14 C           7.9926   32.2259   -0.5850 C.ar    1  UNL1       -0.0028
     15 C           7.4081   33.4073   -1.0667 C.ar    1  UNL1       -0.0061
     16 C           6.8076   34.2850   -0.1563 C.ar    1  UNL1       -0.0028
     17 C           6.7815   33.9820    1.2086 C.ar    1  UNL1        0.0042
     18 C           7.4790   33.7434   -2.5443 C.3     1  UNL1        0.0992
     19 N           8.8535   33.9683   -3.0284 N.3     1  UNL1       -0.2665
     20 C           9.1888   33.1871   -4.2366 C.3     1  UNL1        0.0899
     21 C           8.4533   33.6409   -5.5194 C.3     1  UNL1        0.0897
     22 N           8.6007   35.0707   -5.8467 N.3     1  UNL1       -0.2691
     23 C           9.8848   35.3383   -6.4904 C.3     1  UNL1        0.0897
     24 C           8.4055   35.9049   -4.6437 C.3     1  UNL1        0.0897
     25 C           9.0768   35.3967   -3.3405 C.3     1  UNL1        0.0899
     26 N           6.4791   32.9840    8.2638 N.pl3   1  UNL1       -0.2827
     27 H           6.5736   33.4141    9.1704 H       1  UNL1        0.1551
     28 C           5.1577   32.5874    8.0537 C.ar    1  UNL1        0.2207
     29 N           4.4743   33.2708    7.1234 N.ar    1  UNL1       -0.2120
     30 C           3.1884   32.9265    6.9322 C.ar    1  UNL1        0.1034
     31 C           2.5497   31.9289    7.6318 C.ar    1  UNL1        0.0400
     32 C           3.3158   31.2703    8.5720 C.ar    1  UNL1        0.0872
     33 N           4.6062   31.6037    8.7807 N.ar    1  UNL1       -0.2135
     34 C           2.8132   30.1720    9.4105 C.ar    1  UNL1        0.0370
     35 C           1.4655   29.7778    9.3851 C.ar    1  UNL1        0.0046
     36 C           1.0032   28.7468   10.2024 C.ar    1  UNL1        0.0207
     37 C           1.9072   28.1216   11.0406 C.ar    1  UNL1        0.0989
     38 N           3.2122   28.4554   11.1098 N.ar    1  UNL1       -0.2423
     39 C           3.6274   29.4632   10.3010 C.ar    1  UNL1        0.1003
@<TRIPOS>BOND
     1     1     2    1
     2     2     3   ar
     3     2     7   ar
     4     3     4   ar
     5     4     5   ar
     6     5     8    1
     7     5     6   ar
     8     8     9   am
     9     8    11    1
    10     9    10    2
    11     9    12    1
    12    12    13   ar
    13    12    17   ar
    14    13    14   ar
    15    14    15   ar
    16    15    18    1
    17    15    16   ar
    18    18    19    1
    19    19    20    1
    20    19    25    1
    21    20    21    1
    22    21    22    1
    23    22    23    1
    24    22    24    1
    25    24    25    1
    26    16    17   ar
    27     6     7   ar
    28     7    26    1
    29    26    28    1
    30    26    27    1
    31    28    29   ar
    32    28    33   ar
    33    29    30   ar
    34    30    31   ar
    35    31    32   ar
    36    32    34    1
    37    32    33   ar
    38    34    35   ar
    39    34    39   ar
    40    35    36   ar
    41    36    37   ar
    42    37    38   ar
    43    38    39   ar
#	Name:			CHEMBL942
#	Creating user name:	trannguyen
#	Creation time:		Tue Feb  8 18:26:14 2022


#	Modifying user name:	trannguyen
#	Modification time:	Tue Feb  8 18:26:14 2022

@<TRIPOS>MOLECULE
CHEMBL942
 27 29 0 0 0
SMALL
GASTEIGER

@<TRIPOS>ATOM
      1 C           4.3480   32.9327    7.3590 C.3     1  UNL1        0.0846
      2 C           2.4317   30.4912   10.4345 C.ar    1  UNL1        0.1484
      3 C           1.8874   31.7208   10.0619 C.ar    1  UNL1        0.0373
      4 C           2.5059   32.4884    9.0696 C.ar    1  UNL1       -0.0005
      5 C           3.6817   32.0488    8.4377 C.ar    1  UNL1       -0.0126
      6 C           4.2217   30.8100    8.8429 C.ar    1  UNL1       -0.0005
      7 C           3.6053   30.0408    9.8371 C.ar    1  UNL1        0.0373
      8 O           1.8825   29.6848   11.4445 O.3     1  UNL1       -0.4241
      9 C           0.2100   28.4748   10.2979 C.3     1  UNL1        0.1216
     10 C           1.3971   28.4071   11.1928 C.2     1  UNL1        0.3220
     11 O           1.8176   27.3564   11.6639 O.2     1  UNL1       -0.2497
     12 C           5.8788   32.7945    7.2570 C.ar    1  UNL1       -0.0126
     13 C           6.4680   32.1470    6.1477 C.ar    1  UNL1       -0.0005
     14 C           7.8582   31.9679    6.0657 C.ar    1  UNL1        0.0373
     15 C           8.6691   32.4494    7.0904 C.ar    1  UNL1        0.1484
     16 C           8.1087   33.0607    8.2050 C.ar    1  UNL1        0.0373
     17 C           6.7288   33.2516    8.2761 C.ar    1  UNL1       -0.0005
     18 O          10.0472   32.1842    7.0194 O.3     1  UNL1       -0.4241
     19 C          10.5802   31.3296    8.0007 C.2     1  UNL1        0.3220
     20 C          11.7402   32.0473    8.6517 C.3     1  UNL1        0.1216
     21 O          10.2139   30.1941    8.2822 O.2     1  UNL1       -0.2497
     22 C           3.6292   32.8364    5.9991 C.ar    1  UNL1        0.0668
     23 C           3.0777   31.6158    5.5976 C.ar    1  UNL1        0.0154
     24 C           2.5691   31.4891    4.3056 C.ar    1  UNL1        0.0028
     25 C           2.5834   32.5867    3.4560 C.ar    1  UNL1        0.0207
     26 C           3.1081   33.7726    3.9366 C.ar    1  UNL1        0.0985
     27 N           3.6439   33.9155    5.1697 N.ar    1  UNL1       -0.2475
@<TRIPOS>BOND
     1     9    10    1
     2    10    11    2
     3    10     8    1
     4     8     2    1
     5     2     3   ar
     6     2     7   ar
     7     3     4   ar
     8     4     5   ar
     9     5     1    1
    10     5     6   ar
    11     1    12    1
    12     1    22    1
    13    12    13   ar
    14    12    17   ar
    15    13    14   ar
    16    14    15   ar
    17    15    18    1
    18    15    16   ar
    19    18    19    1
    20    19    20    1
    21    19    21    2
    22    16    17   ar
    23    22    23   ar
    24    22    27   ar
    25    23    24   ar
    26    24    25   ar
    27    25    26   ar
    28    26    27   ar
    29     6     7   ar
#	Name:			CHEMBL945
#	Creating user name:	trannguyen
#	Creation time:		Tue Feb  8 18:26:14 2022


#	Modifying user name:	trannguyen
#	Modification time:	Tue Feb  8 18:26:14 2022

@<TRIPOS>MOLECULE
CHEMBL945
 23 23 0 0 0
SMALL
GASTEIGER

@<TRIPOS>ATOM
      1 C           2.2139   31.8974    9.7123 C.ar    1  UNL1        0.1827
      2 N           3.5296   31.6247    9.4770 N.ar    1  UNL1       -0.2222
      3 C           4.3236   32.7173    9.4577 C.ar    1  UNL1        0.1695
      4 CL          5.9757   32.3687    9.1367 Cl      1  UNL1       -0.0584
      5 C           3.8511   34.0297    9.6282 C.ar    1  UNL1        0.1555
      6 N           4.6722   35.1576    9.6066 N.pl3   1  UNL1       -0.3407
      7 N           2.5443   34.2679    9.8760 N.ar    1  UNL1       -0.2127
      8 C           1.7164   33.1975    9.9182 C.ar    1  UNL1        0.1507
      9 N           0.4058   33.4872   10.2748 N.pl3   1  UNL1       -0.3412
     10 H           5.2813   35.1807    8.7952 H       1  UNL1        0.1438
     11 H           4.0836   35.9835    9.6813 H       1  UNL1        0.1438
     12 H           0.2295   34.4850   10.2425 H       1  UNL1        0.1438
     13 H          -0.2878   32.9071    9.8044 H       1  UNL1        0.1438
     14 N           1.4872   29.7563   10.5755 N.am    1  UNL1       -0.1695
     15 C           1.2946   30.7268    9.6098 C.2     1  UNL1        0.3283
     16 O           0.4491   30.6362    8.7118 O.2     1  UNL1       -0.2498
     17 H           2.1402   29.9569   11.3252 H       1  UNL1        0.2546
     18 N           1.5576   27.5528   10.9686 N.pl3   1  UNL1       -0.1313
     19 C           0.8348   28.5678   10.6795 C.2     1  UNL1        0.3751
     20 N          -0.4985   28.5057   10.4838 N.pl3   1  UNL1       -0.2906
     21 H           0.9574   26.7270   11.0278 H       1  UNL1        0.3060
     22 H          -1.0113   27.7494   10.9121 H       1  UNL1        0.2545
     23 H          -0.9750   29.4074   10.5308 H       1  UNL1        0.2545
@<TRIPOS>BOND
     1    18    19    2
     2    18    21    1
     3    19    20    1
     4    19    14    1
     5    20    22    1
     6    20    23    1
     7    14    15   am
     8    14    17    1
     9    15    16    2
    10    15     1    1
    11     1     2   ar
    12     1     8   ar
    13     2     3   ar
    14     3     4    1
    15     3     5   ar
    16     5     6    1
    17     5     7   ar
    18     6    10    1
    19     6    11    1
    20     7     8   ar
    21     8     9    1
    22     9    12    1
    23     9    13    1
#	Name:			CHEMBL94
#	Creating user name:	trannguyen
#	Creation time:		Tue Feb  8 18:26:14 2022


#	Modifying user name:	trannguyen
#	Modification time:	Tue Feb  8 18:26:14 2022

@<TRIPOS>MOLECULE
CHEMBL94
 21 23 0 0 0
SMALL
GASTEIGER

@<TRIPOS>ATOM
      1 C           4.1720   30.7995    9.5374 C.ar    1  UNL1        0.1498
      2 C           5.5584   30.8991    9.6951 C.ar    1  UNL1        0.0389
      3 C           6.3366   31.4890    8.6952 C.ar    1  UNL1        0.0174
      4 C           5.7248   31.9863    7.5517 C.ar    1  UNL1        0.0450
      5 C           4.3369   31.9146    7.4233 C.ar    1  UNL1       -0.0035
      6 C           3.5421   31.3241    8.4043 C.ar    1  UNL1        0.0347
      7 C           3.9316   32.5210    6.1144 C.3     1  UNL1        0.0525
      8 C           3.0215   33.7436    6.2883 C.3     1  UNL1        0.0075
      9 C           3.3437   31.5093    5.1312 C.3     1  UNL1        0.0244
     10 C           3.9318   31.9435    3.8025 C.3     1  UNL1        0.0740
     11 N           5.3161   32.2750    4.1356 N.3     1  UNL1       -0.2567
     12 C           5.9296   33.1143    3.1146 C.3     1  UNL1        0.0909
     13 C           5.3147   32.9148    5.4697 C.3     1  UNL1        0.1380
     14 N           6.3660   32.6179    6.4691 N.pl3   1  UNL1       -0.2945
     15 C           7.5819   31.9611    6.0116 C.3     1  UNL1        0.1134
     16 O           3.3382   30.2852   10.5593 O.3     1  UNL1       -0.4103
     17 C           0.0709   28.7267   10.2753 C.3     1  UNL1        0.1140
     18 N           1.1802   29.6324   10.4167 N.am    1  UNL1       -0.2686
     19 C           2.4793   29.2120   10.3280 C.2     1  UNL1        0.4062
     20 O           2.8125   28.0560   10.0911 O.2     1  UNL1       -0.2260
     21 H           1.0272   30.6026   10.6532 H       1  UNL1        0.1528
@<TRIPOS>BOND
     1    17    18    1
     2    18    19   am
     3    18    21    1
     4    19    20    2
     5    19    16    1
     6    16     1    1
     7     1     2   ar
     8     1     6   ar
     9     2     3   ar
    10     3     4   ar
    11     4     5   ar
    12     4    14    1
    13     5     6   ar
    14     5     7    1
    15     7     8    1
    16     7     9    1
    17     7    13    1
    18     9    10    1
    19    10    11    1
    20    11    12    1
    21    11    13    1
    22    13    14    1
    23    14    15    1
#	Name:			CHEMBL9514
#	Creating user name:	trannguyen
#	Creation time:		Tue Feb  8 18:26:14 2022


#	Modifying user name:	trannguyen
#	Modification time:	Tue Feb  8 18:26:14 2022

@<TRIPOS>MOLECULE
CHEMBL9514
 23 25 0 0 0
SMALL
GASTEIGER

@<TRIPOS>ATOM
      1 C           4.9537   33.0525    3.8113 C.ar    1  UNL1        0.2029
      2 N           3.6894   32.7088    3.7420 N.ar    1  UNL1       -0.2136
      3 C           3.3706   32.2408    4.9957 C.ar    1  UNL1        0.0997
      4 C           2.1738   31.6866    5.4752 C.ar    1  UNL1        0.0208
      5 C           2.0703   31.3577    6.8388 C.ar    1  UNL1        0.0048
      6 C           3.1512   31.5520    7.7136 C.ar    1  UNL1        0.0410
      7 C           4.3643   32.0885    7.2341 C.ar    1  UNL1        0.0218
      8 C           4.4373   32.4012    5.8721 C.ar    1  UNL1        0.0766
      9 N           5.4446   32.8985    5.0838 N.ar    1  UNL1       -0.3252
     10 H           6.3760   33.1523    5.3775 H       1  UNL1        0.1686
     11 C           6.8282   32.8591    2.4030 C.2     1  UNL1        0.4076
     12 O           7.4672   32.0783    3.1166 O.2     1  UNL1       -0.2260
     13 N           5.7037   33.5412    2.7712 N.am    1  UNL1       -0.2212
     14 H           5.1950   33.9652    2.0069 H       1  UNL1        0.1610
     15 C           7.8378   32.0818    0.4281 C.3     1  UNL1        0.2574
     16 O           7.1350   33.1282    1.1094 O.3     1  UNL1       -0.4303
     17 C           3.0437   31.2872    9.1857 C.2     1  UNL1        0.2015
     18 O           2.8968   32.2716    9.9115 O.2     1  UNL1       -0.2860
     19 C           3.0930   29.9237    9.6986 C.ar    1  UNL1        0.0684
     20 C           4.1580   29.0524    9.8480 C.ar    1  UNL1        0.0102
     21 C           3.7562   27.7824   10.3636 C.ar    1  UNL1        0.0076
     22 C           2.4078   27.7385   10.6343 C.ar    1  UNL1        0.0355
     23 S           1.6356   29.2184   10.2750 S.2     1  UNL1       -0.0832
@<TRIPOS>BOND
     1    15    16    1
     2    16    11    1
     3    11    12    2
     4    11    13   am
     5    13     1    1
     6    13    14    1
     7     1     2   ar
     8     1     9   ar
     9     2     3   ar
    10     3     4   ar
    11     3     8   ar
    12     4     5   ar
    13     5     6   ar
    14     6    17    1
    15     6     7   ar
    16    17    18    2
    17    17    19    1
    18    19    20   ar
    19    19    23   ar
    20    20    21   ar
    21    21    22   ar
    22    22    23   ar
    23     7     8   ar
    24     8     9   ar
    25     9    10    1
#	Name:			CHEMBL954
#	Creating user name:	trannguyen
#	Creation time:		Tue Feb  8 18:26:14 2022


#	Modifying user name:	trannguyen
#	Modification time:	Tue Feb  8 18:26:14 2022

@<TRIPOS>MOLECULE
CHEMBL954
 29 31 0 0 0
SMALL
GASTEIGER

@<TRIPOS>ATOM
      1 C           6.4699   32.3616    6.2134 C.2     1  UNL1        0.0106
      2 C           5.2125   32.6130    6.6780 C.2     1  UNL1        0.0576
      3 CL          4.8860   32.8653    8.3790 Cl      1  UNL1       -0.0822
      4 C           7.3089   31.5609    2.0629 C.ar    1  UNL1        0.1386
      5 C           7.6386   32.7838    2.6498 C.ar    1  UNL1        0.0369
      6 C           7.2828   33.0661    3.9684 C.ar    1  UNL1        0.0031
      7 C           6.6524   32.1051    4.7618 C.ar    1  UNL1        0.0010
      8 C           6.2903   30.8867    4.1607 C.ar    1  UNL1        0.0031
      9 C           6.5927   30.6219    2.8148 C.ar    1  UNL1        0.0369
     10 O           7.6447   31.1919    0.7816 O.3     1  UNL1       -0.4740
     11 C           8.2794   32.2293    0.0082 C.3     1  UNL1        0.2226
     12 C           7.6534   32.3251   -1.3979 C.3     1  UNL1        0.1200
     13 N           7.0801   33.6397   -1.7752 N.3     1  UNL1       -0.2696
     14 C           7.4451   35.8698   -0.5272 C.3     1  UNL1        0.0188
     15 C           6.8245   34.4702   -0.5787 C.3     1  UNL1        0.0722
     16 C           7.7909   34.3455   -2.8487 C.3     1  UNL1        0.0722
     17 C           8.6136   33.4134   -3.7367 C.3     1  UNL1        0.0188
     18 C           3.9769   32.6906    5.8601 C.ar    1  UNL1        0.0106
     19 C           3.7036   33.8334    5.0914 C.ar    1  UNL1        0.0008
     20 C           2.5571   33.8943    4.2850 C.ar    1  UNL1        0.0000
     21 C           1.6855   32.8113    4.2324 C.ar    1  UNL1        0.0000
     22 C           1.9522   31.6625    4.9749 C.ar    1  UNL1        0.0000
     23 C           3.0949   31.6024    5.7860 C.ar    1  UNL1        0.0008
     24 C           7.6168   32.3072    7.1687 C.ar    1  UNL1        0.0008
     25 C           8.0307   31.0753    7.6960 C.ar    1  UNL1        0.0000
     26 C           9.1527   30.9955    8.5308 C.ar    1  UNL1        0.0000
     27 C           9.8568   32.1460    8.8715 C.ar    1  UNL1        0.0000
     28 C           9.4465   33.3827    8.3709 C.ar    1  UNL1        0.0000
     29 C           8.3394   33.4597    7.5173 C.ar    1  UNL1        0.0000
@<TRIPOS>BOND
     1    14    15    1
     2    15    13    1
     3    13    16    1
     4    13    12    1
     5    16    17    1
     6    12    11    1
     7    11    10    1
     8    10     4    1
     9     4     5   ar
    10     4     9   ar
    11     5     6   ar
    12     6     7   ar
    13     7     1    1
    14     7     8   ar
    15     1     2    2
    16     1    24    1
    17     2     3    1
    18     2    18    1
    19    18    19   ar
    20    18    23   ar
    21    19    20   ar
    22    20    21   ar
    23    21    22   ar
    24    22    23   ar
    25    24    25   ar
    26    24    29   ar
    27    25    26   ar
    28    26    27   ar
    29    27    28   ar
    30    28    29   ar
    31     8     9   ar
#	Name:			CHEMBL95764
#	Creating user name:	trannguyen
#	Creation time:		Tue Feb  8 18:26:14 2022


#	Modifying user name:	trannguyen
#	Modification time:	Tue Feb  8 18:26:14 2022

@<TRIPOS>MOLECULE
CHEMBL95764
 14 13 0 0 0
SMALL
GASTEIGER

@<TRIPOS>ATOM
      1 N           2.1287   30.3298   10.9822 N.3     1  UNL1       -0.2779
      2 H           2.7158   30.6674   11.7558 H       1  UNL1        0.1243
      3 C           2.5939   28.9804   10.5758 C.3     1  UNL1        0.1800
      4 O           2.1300   26.8987   11.7514 O.2     1  UNL1       -0.2487
      5 C           1.7034   27.8952   11.1713 C.2     1  UNL1        0.3301
      6 O           0.3850   28.1054   10.9490 O.3     1  UNL1       -0.4792
      7 H           0.2793   28.9653   10.4767 H       1  UNL1        0.2951
      8 C           2.3375   31.2696    9.8470 C.3     1  UNL1        0.1861
      9 P           0.7699   31.5460    9.0002 P.3     1  UNL1        0.3527
     10 O          -0.1903   30.4060    8.9288 O.2     1  UNL1       -0.2567
     11 O           0.1031   32.8394    9.6733 O.3     1  UNL1       -0.3227
     12 O           1.1253   32.1115    7.5394 O.3     1  UNL1       -0.3227
     13 H          -0.8412   32.9366    9.4534 H       1  UNL1        0.2198
     14 H           0.3455   32.1305    6.9518 H       1  UNL1        0.2198
@<TRIPOS>BOND
     1     4     5    2
     2     5     6    1
     3     5     3    1
     4     6     7    1
     5     3     1    1
     6     1     8    1
     7     1     2    1
     8     8     9    1
     9     9    10    2
    10     9    11    1
    11     9    12    1
    12    11    13    1
    13    12    14    1
#	Name:			CHEMBL959
#	Creating user name:	trannguyen
#	Creation time:		Tue Feb  8 18:26:14 2022


#	Modifying user name:	trannguyen
#	Modification time:	Tue Feb  8 18:26:14 2022

@<TRIPOS>MOLECULE
CHEMBL959
 15 17 0 0 0
SMALL
GASTEIGER

@<TRIPOS>ATOM
      1 C           3.4419   32.7460    6.1244 C.3     1  UNL1        0.0130
      2 C           2.7264   31.4340    5.6786 C.3     1  UNL1        0.0013
      3 C           2.9391   31.1624    4.1802 C.3     1  UNL1        0.0000
      4 C           2.3760   32.3397    3.3695 C.3     1  UNL1        0.0000
      5 C           3.0980   33.6386    3.7597 C.3     1  UNL1        0.0000
      6 C           4.6008   33.4864    3.4783 C.3     1  UNL1        0.0000
      7 C           5.1701   32.3136    4.2917 C.3     1  UNL1        0.0000
      8 C           4.4417   31.0204    3.8998 C.3     1  UNL1        0.0000
      9 C           4.9541   32.5884    5.7900 C.3     1  UNL1        0.0013
     10 C           2.8837   33.9117    5.2607 C.3     1  UNL1        0.0013
     11 C           4.2914   32.2963    8.5525 C.3     1  UNL1        0.0168
     12 C           3.2395   32.9664    7.6617 C.3     1  UNL1        0.0507
     13 N           3.1883   34.3924    8.0104 N.3     1  UNL1       -0.3222
     14 H           4.1037   34.8171    7.8681 H       1  UNL1        0.1188
     15 H           2.9866   34.4941    9.0047 H       1  UNL1        0.1188
@<TRIPOS>BOND
     1    11    12    1
     2    12    13    1
     3    12     1    1
     4    13    14    1
     5    13    15    1
     6     1     2    1
     7     1     9    1
     8     1    10    1
     9     2     3    1
    10     3     4    1
    11     3     8    1
    12     4     5    1
    13     5     6    1
    14     5    10    1
    15     6     7    1
    16     7     8    1
    17     7     9    1
#	Name:			CHEMBL95
#	Creating user name:	trannguyen
#	Creation time:		Tue Feb  8 18:26:14 2022


#	Modifying user name:	trannguyen
#	Modification time:	Tue Feb  8 18:26:14 2022

@<TRIPOS>MOLECULE
CHEMBL95
 17 19 0 0 0
SMALL
GASTEIGER

@<TRIPOS>ATOM
      1 N           2.3972   31.9962    7.5299 N.pl3   1  UNL1       -0.3572
      2 C           2.9643   31.1276    8.4974 C.ar    1  UNL1        0.0400
      3 C           4.3188   31.2792    8.8573 C.ar    1  UNL1        0.0043
      4 C           4.8241   30.4439    9.8569 C.ar    1  UNL1        0.0561
      5 N           4.0601   29.5603   10.5388 N.ar    1  UNL1       -0.2499
      6 C           2.7547   29.4780   10.2569 C.ar    1  UNL1        0.0820
      7 C           1.9886   28.5890   10.9994 C.ar    1  UNL1        0.0191
      8 C           0.6177   28.4367   10.7890 C.ar    1  UNL1        0.0015
      9 C          -0.0111   29.1968    9.8156 C.ar    1  UNL1        0.0001
     10 C           0.7380   30.0980    9.0586 C.ar    1  UNL1        0.0027
     11 C           2.1353   30.2514    9.2538 C.ar    1  UNL1        0.0303
     12 C           6.2636   30.5105   10.2984 C.3     1  UNL1        0.0455
     13 C           7.1788   31.1654    9.2716 C.3     1  UNL1        0.0066
     14 C           6.5730   32.4828    8.8139 C.3     1  UNL1        0.0052
     15 C           5.2265   32.2453    8.1314 C.3     1  UNL1        0.0288
     16 H           3.0636   32.3322    6.8431 H       1  UNL1        0.1423
     17 H           1.5802   31.6085    7.0723 H       1  UNL1        0.1423
@<TRIPOS>BOND
     1     1     2    1
     2     1    16    1
     3     1    17    1
     4     2     3   ar
     5     2    11   ar
     6     3     4   ar
     7     3    15    1
     8     4     5   ar
     9     4    12    1
    10     5     6   ar
    11     6     7   ar
    12     6    11   ar
    13     7     8   ar
    14     8     9   ar
    15     9    10   ar
    16    10    11   ar
    17    12    13    1
    18    13    14    1
    19    14    15    1
#	Name:			CHEMBL960
#	Creating user name:	trannguyen
#	Creation time:		Tue Feb  8 18:26:14 2022


#	Modifying user name:	trannguyen
#	Modification time:	Tue Feb  8 18:26:14 2022

@<TRIPOS>MOLECULE
CHEMBL960
 20 21 0 0 0
SMALL
GASTEIGER

@<TRIPOS>ATOM
      1 C           1.7718   30.7284    9.9182 C.2     1  UNL1        0.2539
      2 O           1.5521   30.8728    8.7219 O.2     1  UNL1       -0.2697
      3 N           1.8307   31.7436   10.8585 N.am    1  UNL1       -0.2803
      4 H           2.1291   31.4913   11.7907 H       1  UNL1        0.1552
      5 C           4.6149   29.1465    9.9718 C.3     1  UNL1        0.0755
      6 C           3.2682   28.7742   10.4527 C.ar    1  UNL1        0.1592
      7 O           3.1541   27.5555   11.0465 O.2     1  UNL1       -0.3576
      8 N           1.8429   27.3583   11.4440 N.ar    1  UNL1       -0.0756
      9 C           1.1950   28.4633   11.0749 C.ar    1  UNL1        0.1479
     10 C           2.0436   29.4100   10.4608 C.ar    1  UNL1        0.1089
     11 C           1.6175   33.1228   10.6420 C.ar    1  UNL1        0.0505
     12 C           2.6268   34.0256   10.3051 C.ar    1  UNL1        0.0146
     13 C           2.3360   35.3798   10.1010 C.ar    1  UNL1        0.0051
     14 C           1.0266   35.8590   10.2264 C.ar    1  UNL1        0.0715
     15 C           0.0123   34.9522   10.5632 C.ar    1  UNL1        0.0051
     16 C           0.3061   33.5987   10.7674 C.ar    1  UNL1        0.0146
     17 C           0.7041   37.3163   10.0023 C.3     1  UNL1        0.4186
     18 F           0.5577   37.6482    8.6893 F       1  UNL1       -0.1659
     19 F          -0.4540   37.6911   10.6131 F       1  UNL1       -0.1659
     20 F           1.6689   38.1439   10.4909 F       1  UNL1       -0.1659
@<TRIPOS>BOND
     1     5     6    1
     2     6     7   ar
     3     6    10   ar
     4     7     8   ar
     5     8     9   ar
     6     9    10   ar
     7    10     1    1
     8     1     2    2
     9     1     3   am
    10     3    11    1
    11     3     4    1
    12    11    12   ar
    13    11    16   ar
    14    12    13   ar
    15    13    14   ar
    16    14    17    1
    17    14    15   ar
    18    17    18    1
    19    17    19    1
    20    17    20    1
    21    15    16   ar
#	Name:			CHEMBL964
#	Creating user name:	trannguyen
#	Creation time:		Tue Feb  8 18:26:14 2022


#	Modifying user name:	trannguyen
#	Modification time:	Tue Feb  8 18:26:14 2022

@<TRIPOS>MOLECULE
CHEMBL964
 16 15 0 0 0
SMALL
GASTEIGER

@<TRIPOS>ATOM
      1 S           5.4457   32.6725    6.8706 S.3     1  UNL1       -0.0271
      2 C           4.3484   32.8539    5.4910 C.2     1  UNL1        0.1212
      3 S           3.1499   34.0444    5.6759 S.2     1  UNL1       -0.0271
      4 N           4.3968   31.9344    4.3655 N.am    1  UNL1       -0.2970
      5 C           2.1320   31.3683    3.0776 C.3     1  UNL1        0.0232
      6 C           3.4152   30.9820    3.8126 C.3     1  UNL1        0.0918
      7 C           5.5911   32.0840    3.4821 C.3     1  UNL1        0.0918
      8 C           6.4800   30.8445    3.4951 C.3     1  UNL1        0.0232
      9 S           4.3166   32.5723    8.6209 S.3     1  UNL1       -0.0271
     10 C           4.6949   31.0200    9.4025 C.2     1  UNL1        0.1212
     11 S           6.2510   30.7407   10.0095 S.2     1  UNL1       -0.0271
     12 N           3.5896   30.1355    9.5580 N.am    1  UNL1       -0.2970
     13 C           3.7302   28.9996   10.5140 C.3     1  UNL1        0.0918
     14 C           4.1125   27.6390    9.9514 C.3     1  UNL1        0.0232
     15 C           2.2250   30.5508    9.1262 C.3     1  UNL1        0.0918
     16 C           1.0512   29.5780    9.3201 C.3     1  UNL1        0.0232
@<TRIPOS>BOND
     1     5     6    1
     2     6     4    1
     3     4     7    1
     4     4     2    1
     5     7     8    1
     6     2     3    2
     7     2     1    1
     8     1     9    1
     9     9    10    1
    10    10    11    2
    11    10    12    1
    12    12    13    1
    13    12    15    1
    14    13    14    1
    15    15    16    1
#	Name:			CHEMBL972
#	Creating user name:	trannguyen
#	Creation time:		Tue Feb  8 18:26:14 2022


#	Modifying user name:	trannguyen
#	Modification time:	Tue Feb  8 18:26:14 2022

@<TRIPOS>MOLECULE
CHEMBL972
 14 14 0 0 0
SMALL
GASTEIGER

@<TRIPOS>ATOM
      1 C           3.6781   32.6349    8.5351 C.3     1  UNL1        0.0628
      2 C           3.2631   33.7053    9.5588 C.3     1  UNL1        0.0177
      3 N           4.2470   33.3091    7.3305 N.3     1  UNL1       -0.2614
      4 C           5.4900   32.7105    6.8349 C.3     1  UNL1        0.0904
      5 C           3.3114   33.4737    6.2054 C.3     1  UNL1        0.1508
      6 C           2.3574   31.1729    5.2486 C.1     1  UNL1       -0.0127
      7 C           2.8006   32.1973    5.6775 C.1     1  UNL1       -0.0599
      8 C           4.5644   31.5233    9.1770 C.3     1  UNL1        0.0423
      9 C           3.8679   30.2114    9.5139 C.ar    1  UNL1       -0.0208
     10 C           4.6172   29.0828    9.8771 C.ar    1  UNL1       -0.0042
     11 C           3.9897   27.8770   10.2092 C.ar    1  UNL1       -0.0003
     12 C           2.6010   27.7792   10.1878 C.ar    1  UNL1       -0.0000
     13 C           1.8393   28.8924    9.8412 C.ar    1  UNL1       -0.0003
     14 C           2.4664   30.1032    9.5153 C.ar    1  UNL1       -0.0042
@<TRIPOS>BOND
     1     6     7    3
     2     7     5    1
     3     5     3    1
     4     3     4    1
     5     1     2    1
     6     1     8    1
     7     1     3    1
     8     8     9    1
     9     9    10   ar
    10     9    14   ar
    11    10    11   ar
    12    11    12   ar
    13    12    13   ar
    14    13    14   ar
#	Name:			CHEMBL975
#	Creating user name:	trannguyen
#	Creation time:		Tue Feb  8 18:26:14 2022


#	Modifying user name:	trannguyen
#	Modification time:	Tue Feb  8 18:26:14 2022

@<TRIPOS>MOLECULE
CHEMBL975
 8 7 0 0 0
SMALL
GASTEIGER

@<TRIPOS>ATOM
      1 O           3.6089   28.9064   10.9927 O.2     1  UNL1       -0.3714
      2 S           2.4546   28.0391   10.8674 S.3     1  UNL1       -0.1062
      3 O           2.7042   26.8057   10.1179 O.2     1  UNL1       -0.3714
      4 O           1.8364   27.6586   12.1388 O.3     1  UNL1       -0.2908
      5 C           1.2315   28.9512    9.9468 C.3     1  UNL1        0.1371
      6 C           1.8747   30.1241    9.2361 C.3     1  UNL1        0.0766
      7 S           0.6859   31.4951    9.0645 S.3     1  UNL1       -0.1662
      8 H          -0.1360   30.8770    8.2029 H       1  UNL1        0.1023
@<TRIPOS>BOND
     1     1     2    2
     2     2     3    2
     3     2     4    1
     4     2     5    1
     5     5     6    1
     6     6     7    1
     7     7     8    1
#	Name:			CHEMBL976
#	Creating user name:	trannguyen
#	Creation time:		Tue Feb  8 18:26:14 2022


#	Modifying user name:	trannguyen
#	Modification time:	Tue Feb  8 18:26:14 2022

@<TRIPOS>MOLECULE
CHEMBL976
 23 26 0 0 0
SMALL
GASTEIGER

@<TRIPOS>ATOM
      1 O           3.1583   33.2217    9.9982 O.2     1  UNL1       -0.2749
      2 C           4.1255   32.6103    9.5427 C.2     1  UNL1        0.2256
      3 N           5.4194   33.1217    9.6718 N.am    1  UNL1       -0.2692
      4 C           5.5273   34.3256   10.4975 C.3     1  UNL1        0.1794
      5 C           6.9099   34.9416   10.7441 C.2     1  UNL1        0.2462
      6 O           7.0121   36.0217   11.3307 O.2     1  UNL1       -0.2730
      7 N           8.0139   34.1717   10.4096 N.am    1  UNL1       -0.2740
      8 C           9.3459   34.6754   10.7133 C.3     1  UNL1        0.0984
      9 C          10.2442   33.5349   11.1725 C.3     1  UNL1        0.0476
     10 C          10.2462   32.4188   10.1599 C.ar    1  UNL1       -0.0228
     11 C          11.3426   31.5457   10.1028 C.ar    1  UNL1       -0.0045
     12 C          11.3781   30.5184    9.1639 C.ar    1  UNL1       -0.0003
     13 C          10.3232   30.3597    8.2715 C.ar    1  UNL1       -0.0003
     14 C           9.2192   31.2128    8.3329 C.ar    1  UNL1       -0.0029
     15 C           9.1457   32.2339    9.2975 C.ar    1  UNL1       -0.0065
     16 C           7.9080   33.1309    9.3788 C.3     1  UNL1        0.1174
     17 C           6.6242   32.2957    9.5800 C.3     1  UNL1        0.1181
     18 C           3.9327   31.3032    8.7589 C.3     1  UNL1        0.0767
     19 C           3.6820   30.0966    9.6805 C.3     1  UNL1        0.0091
     20 C           2.2641   30.0098   10.2418 C.3     1  UNL1        0.0005
     21 C           1.2093   30.1477    9.1527 C.3     1  UNL1        0.0000
     22 C           1.4185   31.4149    8.3326 C.3     1  UNL1        0.0005
     23 C           2.8169   31.4628    7.7164 C.3     1  UNL1        0.0091
@<TRIPOS>BOND
     1     1     2    2
     2     2    18    1
     3     2     3   am
     4    18    19    1
     5    18    23    1
     6    19    20    1
     7    20    21    1
     8    21    22    1
     9    22    23    1
    10     3     4    1
    11     3    17    1
    12     4     5    1
    13     5     6    2
    14     5     7   am
    15     7     8    1
    16     7    16    1
    17     8     9    1
    18     9    10    1
    19    10    11   ar
    20    10    15   ar
    21    11    12   ar
    22    12    13   ar
    23    13    14   ar
    24    14    15   ar
    25    15    16    1
    26    16    17    1
#	Name:			CHEMBL980
#	Creating user name:	trannguyen
#	Creation time:		Tue Feb  8 18:26:14 2022


#	Modifying user name:	trannguyen
#	Modification time:	Tue Feb  8 18:26:14 2022

@<TRIPOS>MOLECULE
CHEMBL980
 16 16 0 0 0
SMALL
GASTEIGER

@<TRIPOS>ATOM
      1 C           4.1115   29.8079   10.1280 C.ar    1  UNL1        0.1724
      2 C           4.6406   28.5171    9.9844 C.ar    1  UNL1        0.0400
      3 C           3.8147   27.4001   10.0261 C.ar    1  UNL1        0.0033
      4 C           2.4409   27.5666   10.1890 C.ar    1  UNL1        0.0033
      5 C           1.8970   28.8514   10.2666 C.ar    1  UNL1        0.0400
      6 C           2.7131   29.9870   10.2206 C.ar    1  UNL1        0.1723
      7 C           6.0640   30.8686    9.3403 C.3     1  UNL1        0.2526
      8 O           4.9026   30.9313   10.1741 O.3     1  UNL1       -0.4684
      9 O           2.2454   31.2833   10.2756 O.3     1  UNL1       -0.4697
     10 C           1.2857   31.6658    9.2774 C.3     1  UNL1        0.2371
     11 C           1.9755   31.8001    7.9134 C.3     1  UNL1        0.1835
     12 O           1.0289   32.1515    6.8892 O.3     1  UNL1       -0.3784
     13 H           0.3931   31.4109    6.8512 H       1  UNL1        0.2106
     14 C           3.0410   32.9007    7.9402 C.3     1  UNL1        0.1702
     15 O           2.6418   33.9268    8.8495 O.3     1  UNL1       -0.3794
     16 H           2.3533   33.4488    9.6533 H       1  UNL1        0.2105
@<TRIPOS>BOND
     1     7     8    1
     2     8     1    1
     3     1     2   ar
     4     1     6   ar
     5     2     3   ar
     6     3     4   ar
     7     4     5   ar
     8     5     6   ar
     9     6     9    1
    10     9    10    1
    11    10    11    1
    12    11    12    1
    13    11    14    1
    14    12    13    1
    15    14    15    1
    16    15    16    1
#	Name:			CHEMBL98350
#	Creating user name:	trannguyen
#	Creation time:		Tue Feb  8 18:26:14 2022


#	Modifying user name:	trannguyen
#	Modification time:	Tue Feb  8 18:26:14 2022

@<TRIPOS>MOLECULE
CHEMBL98350
 23 26 0 0 0
SMALL
GASTEIGER

@<TRIPOS>ATOM
      1 O           0.9454   32.4695    4.9485 O.2     1  UNL1       -0.2863
      2 C           1.8803   32.1873    5.6913 C.ar    1  UNL1        0.2030
      3 C           1.6736   31.3498    6.8756 C.ar    1  UNL1        0.0955
      4 C           2.6896   31.0829    7.7109 C.ar    1  UNL1        0.2024
      5 O           3.9561   31.6348    7.5126 O.2     1  UNL1       -0.4398
      6 C           4.2546   32.3082    6.3486 C.ar    1  UNL1        0.1498
      7 C           5.5953   32.6919    6.1081 C.ar    1  UNL1        0.0347
      8 C           5.8582   33.3905    4.9062 C.ar    1  UNL1        0.0030
      9 C           4.8476   33.7161    3.9974 C.ar    1  UNL1        0.0003
     10 C           3.5393   33.3346    4.2581 C.ar    1  UNL1        0.0062
     11 C           3.2529   32.6267    5.4270 C.ar    1  UNL1        0.0736
     12 N           2.5639   30.2653    8.8474 N.pl3   1  UNL1       -0.2742
     13 C           1.2615   30.1822    9.5602 C.3     1  UNL1        0.1257
     14 C           1.1749   28.9086   10.4122 C.3     1  UNL1        0.1637
     15 O           2.2666   28.8166   11.3379 O.3     1  UNL1       -0.3501
     16 C           3.5053   28.7820   10.6176 C.3     1  UNL1        0.1637
     17 C           3.7038   30.0510    9.7777 C.3     1  UNL1        0.1257
     18 C           6.7210   32.3965    7.0362 C.ar    1  UNL1        0.0029
     19 C           6.8685   33.0566    8.2689 C.ar    1  UNL1        0.0001
     20 C           7.9294   32.7663    9.1346 C.ar    1  UNL1        0.0000
     21 C           8.8538   31.7819    8.8018 C.ar    1  UNL1        0.0000
     22 C           8.7237   31.0961    7.5997 C.ar    1  UNL1        0.0000
     23 C           7.6772   31.4085    6.7253 C.ar    1  UNL1        0.0001
@<TRIPOS>BOND
     1     1     2    2
     2     2     3   ar
     3     2    11   ar
     4     3     4   ar
     5     4    12    1
     6     4     5   ar
     7    12    13    1
     8    12    17    1
     9    13    14    1
    10    14    15    1
    11    15    16    1
    12    16    17    1
    13     5     6   ar
    14     6     7   ar
    15     6    11   ar
    16     7    18    1
    17     7     8   ar
    18    18    19   ar
    19    18    23   ar
    20    19    20   ar
    21    20    21   ar
    22    21    22   ar
    23    22    23   ar
    24     8     9   ar
    25     9    10   ar
    26    10    11   ar
#	Name:			CHEMBL983
#	Creating user name:	trannguyen
#	Creation time:		Tue Feb  8 18:26:14 2022


#	Modifying user name:	trannguyen
#	Modification time:	Tue Feb  8 18:26:14 2022

@<TRIPOS>MOLECULE
CHEMBL983
 20 19 0 0 0
SMALL
GASTEIGER

@<TRIPOS>ATOM
      1 C           4.9766   31.8166    4.4159 C.3     1  UNL1        0.1212
      2 C           6.1776   31.4071    3.6189 C.2     1  UNL1        0.3178
      3 O           6.2264   30.4810    2.7922 O.2     1  UNL1       -0.2501
      4 O           7.1975   32.2724    3.8941 O.3     1  UNL1       -0.4420
      5 C           8.1081   32.4831    2.8026 C.3     1  UNL1        0.2688
      6 C           7.6043   33.6887    1.9785 C.3     1  UNL1        0.1575
      7 C           7.7948   32.1920   -0.0781 C.3     1  UNL1        0.1711
      8 N           7.8398   33.6285    0.4287 N.4     1  UNL1        0.3135
      9 C           9.1281   34.3249    0.0204 C.3     1  UNL1        0.1711
     10 C           6.6897   34.3753   -0.2590 C.3     1  UNL1        0.1711
     11 C           3.7087   31.1182    3.9683 C.3     1  UNL1        0.1212
     12 C           2.4440   31.7371    4.5236 C.2     1  UNL1        0.3178
     13 O           1.8230   32.6106    3.9563 O.2     1  UNL1       -0.2501
     14 O           1.9718   31.0755    5.6186 O.3     1  UNL1       -0.4420
     15 C           1.9927   31.8274    6.8496 C.3     1  UNL1        0.2688
     16 C           1.6883   30.8706    8.0126 C.3     1  UNL1        0.1575
     17 N           2.4230   31.1618    9.3410 N.4     1  UNL1        0.3135
     18 C           3.9304   31.0820    9.0861 C.3     1  UNL1        0.1711
     19 C           2.0895   32.5645    9.8504 C.3     1  UNL1        0.1711
     20 C           2.0502   30.1386   10.4110 C.3     1  UNL1        0.1711
@<TRIPOS>UNITY_ATOM_ATTR
8 1
charge 1
17 1
charge 1
@<TRIPOS>BOND
     1     7     8    1
     2     8     9    1
     3     8    10    1
     4     8     6    1
     5     6     5    1
     6     5     4    1
     7     4     2    1
     8     2     3    2
     9     2     1    1
    10     1    11    1
    11    11    12    1
    12    12    13    2
    13    12    14    1
    14    14    15    1
    15    15    16    1
    16    16    17    1
    17    17    18    1
    18    17    19    1
    19    17    20    1
#	Name:			CHEMBL989
#	Creating user name:	trannguyen
#	Creation time:		Tue Feb  8 18:26:14 2022


#	Modifying user name:	trannguyen
#	Modification time:	Tue Feb  8 18:26:14 2022

@<TRIPOS>MOLECULE
CHEMBL989
 34 38 0 0 0
SMALL
GASTEIGER

@<TRIPOS>ATOM
      1 C          10.8686   35.0309   10.5962 C.3     1  UNL1        0.0612
      2 C          10.0001   33.8068   10.3172 C.3     1  UNL1        0.1877
      3 C           8.9795   33.6413   11.4395 C.3     1  UNL1        0.0612
      4 O          10.8261   32.6432   10.2647 O.3     1  UNL1       -0.3339
      5 C          10.6554   32.0824    8.9647 C.3     1  UNL1        0.1491
      6 C           9.5969   30.9662    8.9910 C.3     1  UNL1        0.0327
      7 C           8.4744   31.3580    7.9939 C.3     1  UNL1        0.0080
      8 C           7.1416   31.7376    8.7035 C.3     1  UNL1        0.0363
      9 C           6.5300   30.4764    9.3490 C.3     1  UNL1        0.0423
     10 C           5.1905   30.7515   10.0110 C.3     1  UNL1        0.1799
     11 F           4.7335   29.5745   10.5255 F       1  UNL1       -0.2328
     12 C           4.2357   31.3210    9.0008 C.2     1  UNL1       -0.0034
     13 C           3.0907   30.6822    8.6985 C.2     1  UNL1        0.0365
     14 C           2.1671   31.1832    7.6635 C.2     1  UNL1        0.1949
     15 O           1.1142   30.6121    7.4143 O.2     1  UNL1       -0.2866
     16 C           2.5710   32.4004    6.9362 C.2     1  UNL1        0.0378
     17 C           3.7072   33.0438    7.2385 C.2     1  UNL1       -0.0170
     18 C           4.6950   32.6260    8.3313 C.3     1  UNL1        0.0662
     19 C           4.6391   33.7420    9.3998 C.3     1  UNL1        0.0113
     20 C           6.1441   32.4056    7.7176 C.3     1  UNL1        0.1646
     21 F           5.9971   31.5145    6.6729 F       1  UNL1       -0.2369
     22 C           6.7935   33.6815    7.1277 C.3     1  UNL1        0.1409
     23 O           7.0001   34.6993    8.1005 O.3     1  UNL1       -0.3817
     24 C           8.0953   33.3672    6.3864 C.3     1  UNL1        0.0348
     25 C           9.1223   32.4561    7.1027 C.3     1  UNL1        0.0343
     26 C           9.9289   31.7421    5.9812 C.3     1  UNL1        0.0029
     27 C          10.0757   33.1867    8.1010 C.3     1  UNL1        0.1727
     28 O           9.3170   33.9546    9.0595 O.3     1  UNL1       -0.3297
     29 H           7.9163   34.6387    8.4432 H       1  UNL1        0.2104
     30 C          11.0929   34.1190    7.4030 C.2     1  UNL1        0.2065
     31 O          12.2996   33.8472    7.3856 O.2     1  UNL1       -0.2909
     32 C          10.6054   35.3762    6.6954 C.3     1  UNL1        0.2045
     33 O           9.7282   36.1291    7.5070 O.3     1  UNL1       -0.3749
     34 H           8.9189   35.5957    7.6206 H       1  UNL1        0.2110
@<TRIPOS>BOND
     1     1     2    1
     2     2     4    1
     3     2    28    1
     4     2     3    1
     5     4     5    1
     6     5     6    1
     7     5    27    1
     8     6     7    1
     9     7     8    1
    10     7    25    1
    11     8     9    1
    12     8    20    1
    13     9    10    1
    14    10    12    1
    15    10    11    1
    16    12    13    2
    17    12    18    1
    18    13    14    1
    19    14    16    1
    20    14    15    2
    21    16    17    2
    22    17    18    1
    23    18    20    1
    24    18    19    1
    25    20    22    1
    26    20    21    1
    27    22    24    1
    28    22    23    1
    29    23    29    1
    30    24    25    1
    31    25    27    1
    32    25    26    1
    33    27    28    1
    34    27    30    1
    35    30    31    2
    36    30    32    1
    37    32    33    1
    38    33    34    1
#	Name:			CHEMBL98
#	Creating user name:	trannguyen
#	Creation time:		Tue Feb  8 18:26:14 2022


#	Modifying user name:	trannguyen
#	Modification time:	Tue Feb  8 18:26:14 2022

@<TRIPOS>MOLECULE
CHEMBL98
 22 22 0 0 0
SMALL
GASTEIGER

@<TRIPOS>ATOM
      1 C           6.3954   33.0231    9.3816 C.3     1  UNL1        0.0096
      2 C           6.6206   31.6796   10.0954 C.3     1  UNL1        0.0005
      3 C           5.8974   30.5320    9.3555 C.3     1  UNL1        0.0005
      4 C           4.9996   29.7164   10.2934 C.3     1  UNL1        0.0096
      5 C           3.5794   29.5107    9.7479 C.3     1  UNL1        0.0871
      6 O           1.8311   29.2601   11.4095 O.2     1  UNL1       -0.2730
      7 C           2.7164   28.7397   10.7278 C.2     1  UNL1        0.2443
      8 N           2.9852   27.3945   10.7812 N.am    1  UNL1       -0.1970
      9 O           2.1779   26.5970   11.6130 O.3     1  UNL1       -0.2952
     10 H           3.5882   26.9091   10.1240 H       1  UNL1        0.1822
     11 H           1.4903   27.2285   11.9152 H       1  UNL1        0.2414
     12 C           5.1463   33.8073    9.8330 C.3     1  UNL1        0.0854
     13 C           3.9923   33.6810    8.8292 C.2     1  UNL1        0.2261
     14 O           2.8256   33.7953    9.2248 O.2     1  UNL1       -0.2748
     15 N           4.3823   33.3646    7.5314 N.am    1  UNL1       -0.2839
     16 H           5.3732   33.3093    7.3372 H       1  UNL1        0.1549
     17 C           3.5163   33.0173    6.4562 C.ar    1  UNL1        0.0503
     18 C           3.1043   33.9333    5.4863 C.ar    1  UNL1        0.0147
     19 C           2.1545   33.5957    4.5156 C.ar    1  UNL1        0.0013
     20 C           1.5960   32.3249    4.5019 C.ar    1  UNL1        0.0001
     21 C           2.0219   31.3809    5.4350 C.ar    1  UNL1        0.0013
     22 C           2.9958   31.7133    6.3887 C.ar    1  UNL1        0.0147
@<TRIPOS>BOND
     1     6     7    2
     2     7     5    1
     3     7     8   am
     4     5     4    1
     5     4     3    1
     6     3     2    1
     7     2     1    1
     8     1    12    1
     9    12    13    1
    10    13    14    2
    11    13    15   am
    12    15    17    1
    13    15    16    1
    14    17    18   ar
    15    17    22   ar
    16    18    19   ar
    17    19    20   ar
    18    20    21   ar
    19    21    22   ar
    20     8     9    1
    21     8    10    1
    22     9    11    1
#	Name:			CHEMBL990
#	Creating user name:	trannguyen
#	Creation time:		Tue Feb  8 18:26:14 2022


#	Modifying user name:	trannguyen
#	Modification time:	Tue Feb  8 18:26:14 2022

@<TRIPOS>MOLECULE
CHEMBL990
 24 26 0 0 0
SMALL
GASTEIGER

@<TRIPOS>ATOM
      1 C           3.3300   32.8940    6.1016 C.3     1  UNL1        0.0902
      2 N           4.5153   32.3379    6.7729 N.3     1  UNL1       -0.2639
      3 C           5.7668   32.9179    6.2401 C.3     1  UNL1        0.0994
      4 C           7.0050   32.5386    7.0317 C.ar    1  UNL1       -0.0062
      5 C           7.6099   33.4517    7.9000 C.ar    1  UNL1       -0.0032
      6 C           8.8131   33.1337    8.5429 C.ar    1  UNL1       -0.0046
      7 C           9.4511   31.8954    8.3397 C.ar    1  UNL1       -0.0228
      8 C           8.7816   30.9579    7.5351 C.ar    1  UNL1       -0.0046
      9 C           7.5765   31.2701    6.8970 C.ar    1  UNL1       -0.0032
     10 C          10.8504   31.6290    8.9254 C.3     1  UNL1        0.0189
     11 C          11.9928   32.1937    8.0501 C.3     1  UNL1        0.0044
     12 C          10.9629   32.3053   10.3112 C.3     1  UNL1        0.0044
     13 C          11.1060   30.1175    9.0967 C.3     1  UNL1        0.0044
     14 C           4.3650   32.5351    8.2332 C.3     1  UNL1        0.0994
     15 C           4.2027   31.2617    9.0553 C.ar    1  UNL1       -0.0061
     16 C           5.3752   30.6731    9.5771 C.ar    1  UNL1       -0.0029
     17 C           5.3269   29.4724   10.2806 C.ar    1  UNL1       -0.0003
     18 C           4.1086   28.8312   10.4548 C.ar    1  UNL1       -0.0000
     19 C           2.9227   29.3799    9.9564 C.ar    1  UNL1       -0.0003
     20 C           1.7141   28.6897   10.1239 C.ar    1  UNL1       -0.0000
     21 C           0.5103   29.2202    9.6759 C.ar    1  UNL1       -0.0000
     22 C           0.4995   30.4683    9.0648 C.ar    1  UNL1       -0.0000
     23 C           1.6992   31.1565    8.8628 C.ar    1  UNL1       -0.0003
     24 C           2.9443   30.6323    9.2739 C.ar    1  UNL1       -0.0027
@<TRIPOS>BOND
     1     1     2    1
     2     2     3    1
     3     2    14    1
     4     3     4    1
     5     4     5   ar
     6     4     9   ar
     7     5     6   ar
     8     6     7   ar
     9     7    10    1
    10     7     8   ar
    11    10    11    1
    12    10    12    1
    13    10    13    1
    14     8     9   ar
    15    14    15    1
    16    15    16   ar
    17    15    24   ar
    18    16    17   ar
    19    17    18   ar
    20    18    19   ar
    21    19    20   ar
    22    19    24   ar
    23    20    21   ar
    24    21    22   ar
    25    22    23   ar
    26    23    24   ar
#	Name:			CHEMBL991
#	Creating user name:	trannguyen
#	Creation time:		Tue Feb  8 18:26:14 2022


#	Modifying user name:	trannguyen
#	Modification time:	Tue Feb  8 18:26:14 2022

@<TRIPOS>MOLECULE
CHEMBL991
 18 19 0 0 0
SMALL
GASTEIGER

@<TRIPOS>ATOM
      1 C           4.7089   28.2782   10.3736 C.3     1  UNL1        0.0376
      2 C           3.3465   28.7855   10.0355 C.ar    1  UNL1        0.0515
      3 C           3.1163   29.9042    9.3408 C.ar    1  UNL1        0.0826
      4 N           1.8457   30.3329    9.0025 N.ar    1  UNL1       -0.2539
      5 C           0.7183   29.6371    9.4092 C.ar    1  UNL1        0.3324
      6 O          -0.4377   29.9711    9.1558 O.2     1  UNL1       -0.2464
      7 N           0.9544   28.5068   10.1481 N.ar    1  UNL1       -0.2746
      8 H           0.1459   27.9831   10.4436 H       1  UNL1        0.1734
      9 C           2.1769   27.9959   10.4824 C.ar    1  UNL1        0.2584
     10 O           2.2994   26.9554   11.1144 O.2     1  UNL1       -0.2674
     11 C           1.6547   31.5032    8.1581 C.3     1  UNL1        0.2322
     12 C           2.8986   32.3163    8.0647 C.2     1  UNL1        0.0250
     13 C           3.2024   32.5320    6.7841 C.2     1  UNL1        0.0053
     14 C           2.1658   31.9087    5.9132 C.3     1  UNL1        0.1686
     15 O           1.3913   31.0712    6.8038 O.3     1  UNL1       -0.3274
     16 C           2.7029   31.0527    4.7585 C.3     1  UNL1        0.1713
     17 O           2.4114   31.6324    3.4860 O.3     1  UNL1       -0.3792
     18 H           2.8589   32.4982    3.4981 H       1  UNL1        0.2106
@<TRIPOS>BOND
     1     1     2    1
     2     2     3   ar
     3     2     9   ar
     4     3     4   ar
     5     4    11    1
     6     4     5   ar
     7    11    12    1
     8    11    15    1
     9    12    13    2
    10    13    14    1
    11    14    15    1
    12    14    16    1
    13    16    17    1
    14    17    18    1
    15     5     6    2
    16     5     7   ar
    17     7     8    1
    18     7     9   ar
    19     9    10    2
#	Name:			CHEMBL998
#	Creating user name:	trannguyen
#	Creation time:		Tue Feb  8 18:26:14 2022


#	Modifying user name:	trannguyen
#	Modification time:	Tue Feb  8 18:26:14 2022

@<TRIPOS>MOLECULE
CHEMBL998
 27 30 0 0 0
SMALL
GASTEIGER

@<TRIPOS>ATOM
      1 C           9.5017   32.8508   10.1969 C.2     1  UNL1        0.4049
      2 O           9.6271   33.1923   11.3640 O.2     1  UNL1       -0.2262
      3 N           8.2801   32.6178    9.5895 N.am    1  UNL1       -0.2454
      4 C           8.1427   32.5713    8.1306 C.3     1  UNL1        0.1011
      5 C           6.9374   31.7332    7.7008 C.3     1  UNL1        0.0437
      6 C           5.6768   32.2328    8.3950 C.2     1  UNL1       -0.0394
      7 C           4.5650   32.7005    7.7663 C.2     1  UNL1        0.0093
      8 C           3.3816   33.0816    8.5708 C.ar    1  UNL1       -0.0031
      9 C           3.3583   34.2695    9.3142 C.ar    1  UNL1        0.0006
     10 C           2.2352   34.5967   10.0748 C.ar    1  UNL1        0.0114
     11 C           1.1330   33.7439   10.0806 C.ar    1  UNL1        0.0574
     12 CL         -0.2499   34.1453   11.0234 Cl      1  UNL1       -0.0823
     13 C           1.1352   32.5723    9.3220 C.ar    1  UNL1        0.0071
     14 C           2.2580   32.2372    8.5533 C.ar    1  UNL1       -0.0210
     15 C           2.2707   31.0038    7.6833 C.3     1  UNL1        0.0311
     16 C           2.2679   31.3495    6.1875 C.3     1  UNL1        0.0326
     17 C           3.4389   32.0970    5.5802 C.ar    1  UNL1       -0.0042
     18 C           3.4642   32.2089    4.1786 C.ar    1  UNL1       -0.0012
     19 C           4.4750   32.9184    3.5407 C.ar    1  UNL1        0.0204
     20 C           5.4385   33.5183    4.3241 C.ar    1  UNL1        0.0988
     21 N           5.4575   33.4439    5.6695 N.ar    1  UNL1       -0.2442
     22 C           4.4752   32.7266    6.2831 C.ar    1  UNL1        0.0767
     23 C           5.8608   32.1268    9.9030 C.3     1  UNL1        0.0437
     24 C           7.0746   32.9483   10.3464 C.3     1  UNL1        0.1011
     25 O          10.5495   32.6659    9.3468 O.3     1  UNL1       -0.4345
     26 C          10.9432   30.3040    9.0573 C.3     1  UNL1        0.0513
     27 C          11.4335   31.5922    9.6917 C.3     1  UNL1        0.2102
@<TRIPOS>BOND
     1    26    27    1
     2    27    25    1
     3    25     1    1
     4     1     2    2
     5     1     3   am
     6     3     4    1
     7     3    24    1
     8     4     5    1
     9     5     6    1
    10     6     7    2
    11     6    23    1
    12     7     8    1
    13     7    22    1
    14     8     9   ar
    15     8    14   ar
    16     9    10   ar
    17    10    11   ar
    18    11    12    1
    19    11    13   ar
    20    13    14   ar
    21    14    15    1
    22    15    16    1
    23    16    17    1
    24    17    18   ar
    25    17    22   ar
    26    18    19   ar
    27    19    20   ar
    28    20    21   ar
    29    21    22   ar
    30    23    24    1
#	Name:			CHEMBL9
#	Creating user name:	trannguyen
#	Creation time:		Tue Feb  8 18:26:14 2022


#	Modifying user name:	trannguyen
#	Modification time:	Tue Feb  8 18:26:14 2022

@<TRIPOS>MOLECULE
CHEMBL9
 25 27 0 0 0
SMALL
GASTEIGER

@<TRIPOS>ATOM
      1 N           2.2058   31.1413    8.2756 N.ar    1  UNL1       -0.3257
      2 C           1.2711   30.3136    8.8875 C.ar    1  UNL1        0.0856
      3 C           1.5039   29.4264    9.8630 C.ar    1  UNL1        0.1314
      4 C           2.8949   29.3132   10.3415 C.ar    1  UNL1        0.2047
      5 O           3.1777   28.5169   11.2323 O.2     1  UNL1       -0.2862
      6 C           3.9204   30.1732    9.7105 C.ar    1  UNL1        0.0573
      7 C           5.2365   30.0522   10.1459 C.ar    1  UNL1        0.0355
      8 C           6.2210   30.8377    9.5693 C.ar    1  UNL1        0.1535
      9 F           7.4614   30.6643   10.0497 F       1  UNL1       -0.2029
     10 C           5.9384   31.7807    8.5613 C.ar    1  UNL1        0.0772
     11 C           4.5921   31.8476    8.1274 C.ar    1  UNL1        0.0341
     12 C           3.5582   31.0677    8.6850 C.ar    1  UNL1        0.0644
     13 N           6.9156   32.6101    7.9501 N.pl3   1  UNL1       -0.3029
     14 C           7.2106   33.8820    8.6597 C.3     1  UNL1        0.1079
     15 C           8.3626   34.6516    7.9939 C.3     1  UNL1        0.0903
     16 N           8.0991   34.9460    6.5767 N.3     1  UNL1       -0.2946
     17 C           7.8221   33.6838    5.8715 C.3     1  UNL1        0.0903
     18 C           6.6856   32.8406    6.4986 C.3     1  UNL1        0.1079
     19 H           8.9236   35.3860    6.1716 H       1  UNL1        0.1233
     20 C           0.3961   28.6121   10.3944 C.2     1  UNL1        0.3427
     21 O          -0.7670   28.7400   10.0215 O.2     1  UNL1       -0.2449
     22 O           0.7507   27.7038   11.3248 O.3     1  UNL1       -0.4770
     23 H           1.7185   27.7005   11.5309 H       1  UNL1        0.2954
     24 C           1.9796   31.2356    5.8166 C.3     1  UNL1        0.0265
     25 C           1.8179   31.9879    7.1309 C.3     1  UNL1        0.1061
@<TRIPOS>BOND
     1    24    25    1
     2    25     1    1
     3     1     2   ar
     4     1    12   ar
     5     2     3   ar
     6     3    20    1
     7     3     4   ar
     8    20    21    2
     9    20    22    1
    10    22    23    1
    11     4     5    2
    12     4     6   ar
    13     6     7   ar
    14     6    12   ar
    15     7     8   ar
    16     8     9    1
    17     8    10   ar
    18    10    13    1
    19    10    11   ar
    20    13    14    1
    21    13    18    1
    22    14    15    1
    23    15    16    1
    24    16    17    1
    25    16    19    1
    26    17    18    1
    27    11    12   ar
