#	Name:			CHEMBL107504
#	Creating user name:	trannguyen
#	Creation time:		Tue Feb  8 17:54:08 2022


#	Modifying user name:	trannguyen
#	Modification time:	Tue Feb  8 17:54:08 2022

@<TRIPOS>MOLECULE
CHEMBL107504
 32 34 0 0 0
SMALL
GASTEIGER

@<TRIPOS>ATOM
      1 N           2.1823   69.4249   66.3329 N.pl3   1  UNL1       -0.3328
      2 H           1.8056   70.3263   66.6256 H       1  UNL1        0.1468
      3 C           3.4918   69.5554   65.8407 C.ar    1  UNL1        0.0440
      4 C           3.8359   69.4746   64.4657 C.ar    1  UNL1        0.0045
      5 C           5.1853   69.5986   64.1156 C.ar    1  UNL1        0.0561
      6 N           6.1396   69.9924   64.9775 N.ar    1  UNL1       -0.2499
      7 C           5.8159   70.1906   66.2558 C.ar    1  UNL1        0.0829
      8 C           6.8561   70.6770   67.0390 C.ar    1  UNL1        0.0192
      9 C           6.7226   70.8632   68.4088 C.ar    1  UNL1        0.0024
     10 C           5.5293   70.5220   69.0085 C.ar    1  UNL1        0.0115
     11 C           4.4556   70.0631   68.2265 C.ar    1  UNL1        0.0603
     12 CL          3.0417   69.6306   69.1406 Cl      1  UNL1       -0.0822
     13 C           4.5426   69.9252   66.7932 C.ar    1  UNL1        0.0410
     14 C           5.6968   69.2507   62.7346 C.3     1  UNL1        0.0455
     15 C           5.4150   67.7911   62.3595 C.3     1  UNL1        0.0063
     16 C           3.9985   67.5336   61.8400 C.3     1  UNL1        0.0007
     17 C           2.8726   67.8276   62.8323 C.3     1  UNL1        0.0048
     18 C           2.8699   69.2717   63.3256 C.3     1  UNL1        0.0288
     19 C           1.6136   68.3277   67.1076 C.3     1  UNL1        0.0870
     20 C           2.1358   66.9797   66.5874 C.3     1  UNL1        0.0212
     21 C           1.3274   66.4789   65.3841 C.3     1  UNL1        0.0019
     22 C           2.0920   65.3970   64.6158 C.3     1  UNL1        0.0054
     23 C           3.6091   65.6178   64.6779 C.3     1  UNL1        0.0648
     24 O           4.1102   64.5100   62.5858 O.3     1  UNL1       -0.3577
     25 C           4.4289   64.5166   63.9774 C.3     1  UNL1        0.2707
     26 O           5.8044   64.9296   64.0183 O.3     1  UNL1       -0.3577
     27 H           4.3611   65.3930   62.2637 H       1  UNL1        0.2130
     28 H           6.3341   64.1086   64.0186 H       1  UNL1        0.2130
     29 C           4.2261   63.1046   64.6499 C.3     1  UNL1        0.4445
     30 F           3.0961   62.4906   64.2320 F       1  UNL1       -0.1654
     31 F           5.2610   62.2869   64.3106 F       1  UNL1       -0.1654
     32 F           4.1952   63.1491   65.9996 F       1  UNL1       -0.1654
@<TRIPOS>BOND
     1    24    25    1
     2    24    27    1
     3    25    26    1
     4    25    23    1
     5    25    29    1
     6    26    28    1
     7    23    22    1
     8    22    21    1
     9    21    20    1
    10    20    19    1
    11    19     1    1
    12     1     3    1
    13     1     2    1
    14     3     4   ar
    15     3    13   ar
    16     4     5   ar
    17     4    18    1
    18     5     6   ar
    19     5    14    1
    20     6     7   ar
    21     7     8   ar
    22     7    13   ar
    23     8     9   ar
    24     9    10   ar
    25    10    11   ar
    26    11    12    1
    27    11    13   ar
    28    14    15    1
    29    15    16    1
    30    16    17    1
    31    17    18    1
    32    29    30    1
    33    29    31    1
    34    29    32    1
#	Name:			CHEMBL107516
#	Creating user name:	trannguyen
#	Creation time:		Tue Feb  8 17:54:08 2022


#	Modifying user name:	trannguyen
#	Modification time:	Tue Feb  8 17:54:08 2022

@<TRIPOS>MOLECULE
CHEMBL107516
 19 21 0 0 0
SMALL
GASTEIGER

@<TRIPOS>ATOM
      1 N           2.1349   69.1889   66.5964 N.pl3   1  UNL1       -0.3571
      2 C           3.4642   69.3648   66.1410 C.ar    1  UNL1        0.0408
      3 C           3.7420   69.1596   64.7697 C.ar    1  UNL1        0.0043
      4 C           5.0341   69.4329   64.3241 C.ar    1  UNL1        0.0561
      5 N           6.0002   69.9162   65.1344 N.ar    1  UNL1       -0.2499
      6 C           5.7238   70.1665   66.4165 C.ar    1  UNL1        0.0829
      7 C           6.7700   70.6888   67.1644 C.ar    1  UNL1        0.0192
      8 C           6.6390   70.9989   68.5134 C.ar    1  UNL1        0.0024
      9 C           5.4248   70.7763   69.1364 C.ar    1  UNL1        0.0115
     10 C           4.3539   70.2471   68.4050 C.ar    1  UNL1        0.0603
     11 CL          2.9077   69.9781   69.3301 Cl      1  UNL1       -0.0822
     12 C           4.4657   69.9270   67.0108 C.ar    1  UNL1        0.0408
     13 C           5.4571   69.1983   62.8954 C.3     1  UNL1        0.0455
     14 C           5.4374   67.7204   62.5068 C.3     1  UNL1        0.0063
     15 C           4.0468   67.1874   62.1623 C.3     1  UNL1        0.0007
     16 C           3.0336   67.2309   63.3061 C.3     1  UNL1        0.0048
     17 C           2.7140   68.6482   63.7858 C.3     1  UNL1        0.0288
     18 H           1.6569   68.3930   66.1893 H       1  UNL1        0.1423
     19 H           2.0557   69.1764   67.6114 H       1  UNL1        0.1423
@<TRIPOS>BOND
     1     1     2    1
     2     1    18    1
     3     1    19    1
     4     2     3   ar
     5     2    12   ar
     6     3     4   ar
     7     3    17    1
     8     4     5   ar
     9     4    13    1
    10     5     6   ar
    11     6     7   ar
    12     6    12   ar
    13     7     8   ar
    14     8     9   ar
    15     9    10   ar
    16    10    11    1
    17    10    12   ar
    18    13    14    1
    19    14    15    1
    20    15    16    1
    21    16    17    1
#	Name:			CHEMBL108313
#	Creating user name:	trannguyen
#	Creation time:		Tue Feb  8 17:54:08 2022


#	Modifying user name:	trannguyen
#	Modification time:	Tue Feb  8 17:54:08 2022

@<TRIPOS>MOLECULE
CHEMBL108313
 29 31 0 0 0
SMALL
GASTEIGER

@<TRIPOS>ATOM
      1 C           0.6248   61.2440   76.9104 C.3     1  UNL1        0.1714
      2 C           0.6990   61.4926   79.8902 C.3     1  UNL1        0.0519
      3 C          -0.1656   62.3756   79.0369 C.ar    1  UNL1        0.0589
      4 N          -0.9438   63.2385   79.7317 N.ar    1  UNL1       -0.2498
      5 C          -1.7896   64.0365   79.0695 C.ar    1  UNL1        0.0820
      6 C          -2.6150   64.8649   79.8188 C.ar    1  UNL1        0.0191
      7 C          -3.5487   65.7137   79.2239 C.ar    1  UNL1        0.0015
      8 C          -3.6683   65.7344   77.8432 C.ar    1  UNL1        0.0001
      9 C          -2.8434   64.9158   77.0700 C.ar    1  UNL1        0.0027
     10 C          -1.8793   64.0599   77.6647 C.ar    1  UNL1        0.0303
     11 C          -0.9843   63.2201   76.9433 C.ar    1  UNL1        0.0424
     12 N          -1.0452   63.1479   75.5231 N.pl3   1  UNL1       -0.3571
     13 C          -0.1698   62.3004   77.6409 C.ar    1  UNL1        0.0338
     14 H          -1.3250   64.0271   75.1012 H       1  UNL1        0.1423
     15 H          -0.1371   62.8618   75.1474 H       1  UNL1        0.1423
     16 O          -0.2569   60.3137   76.2811 O.3     1  UNL1       -0.3442
     17 C          -0.5247   59.1947   77.1288 C.3     1  UNL1        0.1691
     18 C          -1.7605   58.4804   76.6407 C.ar    1  UNL1        0.0074
     19 C          -1.8033   57.0827   76.5548 C.ar    1  UNL1       -0.0018
     20 C          -2.9482   56.4329   76.0986 C.ar    1  UNL1       -0.0002
     21 C          -4.0789   57.1673   75.7391 C.ar    1  UNL1        0.0031
     22 C          -4.0665   58.5641   75.8320 C.ar    1  UNL1        0.0429
     23 C          -2.9091   59.2103   76.2997 C.ar    1  UNL1        0.0013
     24 C          -5.2439   59.4082   75.4884 C.2     1  UNL1        0.2666
     25 O          -5.2315   59.9832   74.3890 O.2     1  UNL1       -0.2825
     26 C          -6.4174   59.5058   76.4537 C.3     1  UNL1        0.4554
     27 F          -7.3424   58.5117   76.3457 F       1  UNL1       -0.1631
     28 F          -6.0095   59.4940   77.7540 F       1  UNL1       -0.1631
     29 F          -7.1134   60.6660   76.2845 F       1  UNL1       -0.1631
@<TRIPOS>BOND
     1     2     3    1
     2     3     4   ar
     3     3    13   ar
     4     4     5   ar
     5     5     6   ar
     6     5    10   ar
     7     6     7   ar
     8     7     8   ar
     9     8     9   ar
    10     9    10   ar
    11    10    11   ar
    12    11    12    1
    13    11    13   ar
    14    12    14    1
    15    12    15    1
    16    13     1    1
    17     1    16    1
    18    16    17    1
    19    17    18    1
    20    18    19   ar
    21    18    23   ar
    22    19    20   ar
    23    20    21   ar
    24    21    22   ar
    25    22    24    1
    26    22    23   ar
    27    24    25    2
    28    24    26    1
    29    26    27    1
    30    26    28    1
    31    26    29    1
#	Name:			CHEMBL108434
#	Creating user name:	trannguyen
#	Creation time:		Tue Feb  8 17:54:08 2022


#	Modifying user name:	trannguyen
#	Modification time:	Tue Feb  8 17:54:08 2022

@<TRIPOS>MOLECULE
CHEMBL108434
 26 28 0 0 0
SMALL
GASTEIGER

@<TRIPOS>ATOM
      1 C           5.7098   69.3802   63.0656 C.3     1  UNL1        0.0518
      2 C           5.1813   69.5357   64.4638 C.ar    1  UNL1        0.0574
      3 N           6.0874   70.0041   65.3572 N.ar    1  UNL1       -0.2498
      4 C           5.7168   70.2112   66.6242 C.ar    1  UNL1        0.0842
      5 C           6.6587   70.7440   67.4981 C.ar    1  UNL1        0.0193
      6 C           6.3683   71.0045   68.8378 C.ar    1  UNL1        0.0039
      7 C           5.1036   70.7136   69.3227 C.ar    1  UNL1        0.0298
      8 C           4.1540   70.1749   68.4592 C.ar    1  UNL1        0.1427
      9 F           2.9473   69.8815   68.9763 F       1  UNL1       -0.2041
     10 C           4.4229   69.9186   67.0943 C.ar    1  UNL1        0.0577
     11 C           3.4916   69.3753   66.1634 C.ar    1  UNL1        0.0431
     12 N           2.1419   69.1700   66.5480 N.pl3   1  UNL1       -0.3571
     13 C           3.8535   69.2435   64.8057 C.ar    1  UNL1        0.0153
     14 H           2.0271   69.0920   67.5585 H       1  UNL1        0.1423
     15 H           1.6986   68.3904   66.0687 H       1  UNL1        0.1423
     16 C           2.8471   68.8226   63.7559 C.3     1  UNL1        0.0886
     17 S           3.5472   67.6055   62.5867 S.3     1  UNL1       -0.1021
     18 C           3.6838   66.1326   63.7108 C.3     1  UNL1        0.2188
     19 C           4.0310   64.9084   62.8503 C.3     1  UNL1        0.0489
     20 C           4.7818   64.0273   63.8220 C.3     1  UNL1        0.0357
     21 C           5.5480   65.0357   64.6494 C.3     1  UNL1        0.1436
     22 O           4.8619   66.2939   64.5499 O.3     1  UNL1       -0.3405
     23 C           2.4033   65.8625   64.5841 C.3     1  UNL1        0.4286
     24 F           2.5672   66.1890   65.8883 F       1  UNL1       -0.1668
     25 F           1.3252   66.5608   64.1505 F       1  UNL1       -0.1668
     26 F           2.0507   64.5524   64.5564 F       1  UNL1       -0.1668
@<TRIPOS>BOND
     1     1     2    1
     2     2     3   ar
     3     2    13   ar
     4     3     4   ar
     5     4     5   ar
     6     4    10   ar
     7     5     6   ar
     8     6     7   ar
     9     7     8   ar
    10     8     9    1
    11     8    10   ar
    12    10    11   ar
    13    11    12    1
    14    11    13   ar
    15    12    14    1
    16    12    15    1
    17    13    16    1
    18    16    17    1
    19    17    18    1
    20    18    23    1
    21    18    19    1
    22    18    22    1
    23    23    24    1
    24    23    25    1
    25    23    26    1
    26    19    20    1
    27    20    21    1
    28    21    22    1
#	Name:			CHEMBL108696
#	Creating user name:	trannguyen
#	Creation time:		Tue Feb  8 17:54:08 2022


#	Modifying user name:	trannguyen
#	Modification time:	Tue Feb  8 17:54:08 2022

@<TRIPOS>MOLECULE
CHEMBL108696
 30 32 0 0 0
SMALL
GASTEIGER

@<TRIPOS>ATOM
      1 C           2.3612   60.4526   75.7099 C.3     1  UNL1        0.0518
      2 C           1.3235   61.0847   76.5949 C.ar    1  UNL1        0.0574
      3 N           0.6615   62.1159   76.0158 N.ar    1  UNL1       -0.2498
      4 C          -0.3082   62.7416   76.6918 C.ar    1  UNL1        0.0842
      5 C          -0.9430   63.8159   76.0760 C.ar    1  UNL1        0.0193
      6 C          -1.9691   64.5289   76.6984 C.ar    1  UNL1        0.0039
      7 C          -2.3776   64.1551   77.9675 C.ar    1  UNL1        0.0298
      8 C          -1.7492   63.0828   78.5933 C.ar    1  UNL1        0.1427
      9 F          -2.1948   62.7351   79.8131 F       1  UNL1       -0.2041
     10 C          -0.6990   62.3550   77.9834 C.ar    1  UNL1        0.0577
     11 C          -0.0207   61.2520   78.5786 C.ar    1  UNL1        0.0431
     12 N          -0.2778   60.9316   79.9262 N.pl3   1  UNL1       -0.3571
     13 C           1.0484   60.6301   77.8928 C.ar    1  UNL1        0.0153
     14 H          -1.1870   61.2293   80.2750 H       1  UNL1        0.1423
     15 H          -0.0031   60.0095   80.2451 H       1  UNL1        0.1423
     16 C           1.8225   59.4766   78.4947 C.3     1  UNL1        0.0865
     17 S           0.9208   57.8966   78.6480 S.3     1  UNL1       -0.1306
     18 C           0.8576   57.4040   76.9018 C.3     1  UNL1        0.0841
     19 C          -0.5556   57.1112   76.4477 C.ar    1  UNL1       -0.0112
     20 C          -0.9518   55.7889   76.1926 C.ar    1  UNL1       -0.0034
     21 C          -2.2376   55.5129   75.7327 C.ar    1  UNL1       -0.0002
     22 C          -3.1429   56.5540   75.5296 C.ar    1  UNL1        0.0031
     23 C          -2.7810   57.8821   75.8018 C.ar    1  UNL1        0.0428
     24 C          -1.4854   58.1551   76.2615 C.ar    1  UNL1       -0.0003
     25 C          -3.7999   58.9347   75.5073 C.2     1  UNL1        0.2666
     26 O          -3.5874   59.6710   74.5415 O.2     1  UNL1       -0.2825
     27 C          -5.0571   59.0554   76.3576 C.3     1  UNL1        0.4554
     28 F          -5.8176   57.9299   76.4372 F       1  UNL1       -0.1631
     29 F          -4.7674   59.4006   77.6450 F       1  UNL1       -0.1631
     30 F          -5.8895   60.0288   75.8878 F       1  UNL1       -0.1631
@<TRIPOS>BOND
     1     1     2    1
     2     2     3   ar
     3     2    13   ar
     4     3     4   ar
     5     4     5   ar
     6     4    10   ar
     7     5     6   ar
     8     6     7   ar
     9     7     8   ar
    10     8     9    1
    11     8    10   ar
    12    10    11   ar
    13    11    12    1
    14    11    13   ar
    15    12    14    1
    16    12    15    1
    17    13    16    1
    18    16    17    1
    19    17    18    1
    20    18    19    1
    21    19    20   ar
    22    19    24   ar
    23    20    21   ar
    24    21    22   ar
    25    22    23   ar
    26    23    25    1
    27    23    24   ar
    28    25    26    2
    29    25    27    1
    30    27    28    1
    31    27    29    1
    32    27    30    1
#	Name:			CHEMBL108749
#	Creating user name:	trannguyen
#	Creation time:		Tue Feb  8 17:54:08 2022


#	Modifying user name:	trannguyen
#	Modification time:	Tue Feb  8 17:54:08 2022

@<TRIPOS>MOLECULE
CHEMBL108749
 30 32 0 0 0
SMALL
GASTEIGER

@<TRIPOS>ATOM
      1 C           3.6137   68.3398   61.4232 C.3     1  UNL1        0.0519
      2 C           3.5469   67.3147   62.5184 C.ar    1  UNL1        0.0589
      3 N           4.2817   66.2045   62.2903 N.ar    1  UNL1       -0.2498
      4 C           4.3258   65.2355   63.2091 C.ar    1  UNL1        0.0829
      5 C           5.1456   64.1578   62.9035 C.ar    1  UNL1        0.0192
      6 C           5.3058   63.0776   63.7641 C.ar    1  UNL1        0.0024
      7 C           4.6152   63.0681   64.9620 C.ar    1  UNL1        0.0115
      8 C           3.7753   64.1403   65.2906 C.ar    1  UNL1        0.0603
      9 CL          2.9356   63.9704   66.8015 Cl      1  UNL1       -0.0822
     10 C           3.6110   65.2723   64.4245 C.ar    1  UNL1        0.0409
     11 C           2.7956   66.4414   64.6263 C.ar    1  UNL1        0.0432
     12 N           2.1349   66.6622   65.8651 N.pl3   1  UNL1       -0.3571
     13 C           2.8026   67.4988   63.6826 C.ar    1  UNL1        0.0338
     14 H           1.9709   65.7985   66.3804 H       1  UNL1        0.1423
     15 H           1.2633   67.1787   65.7398 H       1  UNL1        0.1423
     16 C           2.0606   68.7897   63.9391 C.3     1  UNL1        0.1714
     17 O           2.4363   69.2924   65.2195 O.3     1  UNL1       -0.3442
     18 C           3.8518   69.3568   65.3802 C.3     1  UNL1        0.1691
     19 C           4.1562   69.8517   66.7749 C.ar    1  UNL1        0.0074
     20 C           3.1847   69.7558   67.7806 C.ar    1  UNL1       -0.0018
     21 C           3.4628   70.2061   69.0702 C.ar    1  UNL1       -0.0002
     22 C           4.7156   70.7411   69.3679 C.ar    1  UNL1        0.0031
     23 C           5.7154   70.8168   68.3921 C.ar    1  UNL1        0.0429
     24 C           5.4270   70.3754   67.0931 C.ar    1  UNL1        0.0013
     25 C           7.0193   71.4268   68.7713 C.2     1  UNL1        0.2666
     26 O           7.3738   72.4249   68.1308 O.2     1  UNL1       -0.2825
     27 C           7.8359   70.8782   69.9277 C.3     1  UNL1        0.4554
     28 F           7.1139   70.4850   71.0127 F       1  UNL1       -0.1631
     29 F           8.5851   69.7979   69.5625 F       1  UNL1       -0.1631
     30 F           8.7237   71.8033   70.3995 F       1  UNL1       -0.1631
@<TRIPOS>BOND
     1     1     2    1
     2     2     3   ar
     3     2    13   ar
     4     3     4   ar
     5     4     5   ar
     6     4    10   ar
     7     5     6   ar
     8     6     7   ar
     9     7     8   ar
    10     8     9    1
    11     8    10   ar
    12    10    11   ar
    13    11    12    1
    14    11    13   ar
    15    12    14    1
    16    12    15    1
    17    13    16    1
    18    16    17    1
    19    17    18    1
    20    18    19    1
    21    19    20   ar
    22    19    24   ar
    23    20    21   ar
    24    21    22   ar
    25    22    23   ar
    26    23    25    1
    27    23    24   ar
    28    25    26    2
    29    25    27    1
    30    27    28    1
    31    27    29    1
    32    27    30    1
#	Name:			CHEMBL108872
#	Creating user name:	trannguyen
#	Creation time:		Tue Feb  8 17:54:08 2022


#	Modifying user name:	trannguyen
#	Modification time:	Tue Feb  8 17:54:08 2022

@<TRIPOS>MOLECULE
CHEMBL108872
 24 27 0 0 0
SMALL
GASTEIGER

@<TRIPOS>ATOM
      1 CL         -9.0875   75.6418   69.8266 Cl      1  UNL1       -0.0822
      2 C          -9.4289   74.2863   70.8562 C.ar    1  UNL1        0.0603
      3 C         -10.1868   73.2729   70.2566 C.ar    1  UNL1        0.0115
      4 C         -10.5523   72.1479   70.9785 C.ar    1  UNL1        0.0024
      5 C         -10.1838   72.0779   72.3111 C.ar    1  UNL1        0.0192
      6 C          -9.4454   73.0765   72.9262 C.ar    1  UNL1        0.0829
      7 N          -9.2037   72.8460   74.2029 N.ar    1  UNL1       -0.2499
      8 C          -8.4350   73.7006   74.8983 C.ar    1  UNL1        0.0561
      9 C          -7.8546   74.8468   74.3310 C.ar    1  UNL1        0.0045
     10 C          -8.1323   75.1402   72.9688 C.ar    1  UNL1        0.0442
     11 C          -8.9879   74.2217   72.2183 C.ar    1  UNL1        0.0410
     12 C          -6.8940   75.6218   75.1992 C.3     1  UNL1        0.0288
     13 C          -7.6127   76.3587   76.3347 C.3     1  UNL1        0.0048
     14 C          -7.9299   75.5000   77.5644 C.3     1  UNL1        0.0007
     15 C          -8.8274   74.2900   77.3153 C.3     1  UNL1        0.0063
     16 C          -8.2219   73.2940   76.3343 C.3     1  UNL1        0.0455
     17 N          -7.4719   76.2065   72.2923 N.pl3   1  UNL1       -0.3288
     18 H          -7.4101   75.9883   71.2963 H       1  UNL1        0.1471
     19 C          -7.9369   77.6061   72.3885 C.3     1  UNL1        0.1208
     20 C          -7.1111   78.5681   71.5359 C.ar    1  UNL1        0.0270
     21 C          -6.5756   78.3821   70.2702 C.ar    1  UNL1        0.0044
     22 C          -5.9196   79.5486   69.7650 C.ar    1  UNL1        0.0072
     23 C          -5.9433   80.5835   70.6714 C.ar    1  UNL1        0.0352
     24 S          -6.7166   80.1341   72.1308 S.2     1  UNL1       -0.0891
@<TRIPOS>BOND
     1     1     2    1
     2     2     3   ar
     3     2    11   ar
     4     3     4   ar
     5     4     5   ar
     6     5     6   ar
     7     6     7   ar
     8     6    11   ar
     9     7     8   ar
    10     8     9   ar
    11     8    16    1
    12     9    10   ar
    13     9    12    1
    14    10    17    1
    15    10    11   ar
    16    17    19    1
    17    17    18    1
    18    19    20    1
    19    20    21   ar
    20    20    24   ar
    21    21    22   ar
    22    22    23   ar
    23    23    24   ar
    24    12    13    1
    25    13    14    1
    26    14    15    1
    27    15    16    1
#	Name:			CHEMBL109105
#	Creating user name:	trannguyen
#	Creation time:		Tue Feb  8 17:54:08 2022


#	Modifying user name:	trannguyen
#	Modification time:	Tue Feb  8 17:54:08 2022

@<TRIPOS>MOLECULE
CHEMBL109105
 31 33 0 0 0
SMALL
GASTEIGER

@<TRIPOS>ATOM
      1 N           5.7771   69.9288   64.7516 N.pl3   1  UNL1       -0.3328
      2 H           6.6657   70.3451   65.0281 H       1  UNL1        0.1468
      3 C           4.9321   69.8422   65.8875 C.ar    1  UNL1        0.0431
      4 C           5.3951   70.4666   67.0896 C.ar    1  UNL1        0.0045
      5 C           4.5966   70.3884   68.2402 C.ar    1  UNL1        0.0561
      6 N           3.4208   69.7287   68.2624 N.ar    1  UNL1       -0.2499
      7 C           2.9940   69.1049   67.1701 C.ar    1  UNL1        0.0820
      8 C           1.8004   68.4086   67.2952 C.ar    1  UNL1        0.0191
      9 C           1.2497   67.6678   66.2547 C.ar    1  UNL1        0.0015
     10 C           1.9098   67.6309   65.0425 C.ar    1  UNL1        0.0001
     11 C           3.1066   68.3325   64.8973 C.ar    1  UNL1        0.0027
     12 C           3.6982   69.1008   65.9362 C.ar    1  UNL1        0.0305
     13 C           4.9559   71.0564   69.5424 C.3     1  UNL1        0.0455
     14 C           6.2230   70.5151   70.2044 C.3     1  UNL1        0.0063
     15 C           7.5190   71.0338   69.5889 C.3     1  UNL1        0.0007
     16 C           7.7269   70.6661   68.1188 C.3     1  UNL1        0.0048
     17 C           6.6822   71.2663   67.1688 C.3     1  UNL1        0.0288
     18 C           5.9573   68.8620   63.7617 C.3     1  UNL1        0.0870
     19 C           5.2586   69.2382   62.4475 C.3     1  UNL1        0.0212
     20 C           4.4129   68.0950   61.8568 C.3     1  UNL1        0.0019
     21 C           5.0040   66.6930   62.1142 C.3     1  UNL1        0.0054
     22 C           4.0079   65.7427   62.7976 C.3     1  UNL1        0.0648
     23 O           5.3922   63.8055   63.1406 O.3     1  UNL1       -0.3577
     24 C           4.5990   64.7712   63.8414 C.3     1  UNL1        0.2707
     25 O           5.5458   65.5063   64.6305 O.3     1  UNL1       -0.3577
     26 H           5.4840   63.0438   63.7437 H       1  UNL1        0.2130
     27 H           6.0738   66.0387   64.0127 H       1  UNL1        0.2130
     28 C           3.5040   64.1037   64.7591 C.3     1  UNL1        0.4445
     29 F           2.2940   64.6824   64.5349 F       1  UNL1       -0.1654
     30 F           3.3500   62.7838   64.4947 F       1  UNL1       -0.1654
     31 F           3.7682   64.2149   66.0787 F       1  UNL1       -0.1654
@<TRIPOS>BOND
     1    23    24    1
     2    23    26    1
     3    24    25    1
     4    24    22    1
     5    24    28    1
     6    25    27    1
     7    22    21    1
     8    21    20    1
     9    20    19    1
    10    19    18    1
    11    18     1    1
    12     1     3    1
    13     1     2    1
    14     3     4   ar
    15     3    12   ar
    16     4     5   ar
    17     4    17    1
    18     5     6   ar
    19     5    13    1
    20     6     7   ar
    21     7     8   ar
    22     7    12   ar
    23     8     9   ar
    24     9    10   ar
    25    10    11   ar
    26    11    12   ar
    27    13    14    1
    28    14    15    1
    29    15    16    1
    30    16    17    1
    31    28    29    1
    32    28    30    1
    33    28    31    1
#	Name:			CHEMBL1115
#	Creating user name:	trannguyen
#	Creation time:		Tue Feb  8 17:54:08 2022


#	Modifying user name:	trannguyen
#	Modification time:	Tue Feb  8 17:54:08 2022

@<TRIPOS>MOLECULE
CHEMBL1115
 13 13 0 0 0
SMALL
GASTEIGER

@<TRIPOS>ATOM
      1 C          -0.5633   56.2590   76.6823 C.2     1  UNL1        0.1642
      2 C          -1.5947   56.5554   75.8000 C.2     1  UNL1        0.0361
      3 C          -2.3095   55.5139   75.2218 C.2     1  UNL1       -0.0016
      4 C          -1.9828   54.1994   75.5416 C.3     1  UNL1        0.1177
      5 N          -0.9876   53.9319   76.4181 N.pl3   1  UNL1       -0.2984
      6 C          -0.6396   52.5399   76.7483 C.3     1  UNL1        0.1126
      7 C          -0.2836   54.9332   76.9997 C.2     1  UNL1        0.0998
      8 O           0.1034   57.3661   77.2416 O.3     1  UNL1       -0.4088
      9 C           1.9588   60.2600   75.9606 C.3     1  UNL1        0.1184
     10 N           1.0081   59.4176   76.6640 N.am    1  UNL1       -0.2422
     11 C          -0.1925   60.0705   77.1631 C.3     1  UNL1        0.1184
     12 C           1.1235   58.0413   76.5615 C.2     1  UNL1        0.4096
     13 O           2.0148   57.4577   75.9580 O.2     1  UNL1       -0.2258
@<TRIPOS>BOND
     1     9    10    1
     2    10    11    1
     3    10    12   am
     4    12    13    2
     5    12     8    1
     6     8     1    1
     7     1     2    1
     8     1     7    2
     9     2     3    2
    10     3     4    1
    11     4     5    1
    12     5     6    1
    13     5     7    1
#	Name:			CHEMBL117651
#	Creating user name:	trannguyen
#	Creation time:		Tue Feb  8 17:54:08 2022


#	Modifying user name:	trannguyen
#	Modification time:	Tue Feb  8 17:54:08 2022

@<TRIPOS>MOLECULE
CHEMBL117651
 55 62 0 0 0
SMALL
GASTEIGER

@<TRIPOS>ATOM
      1 C           2.6908   64.5937   65.0771 C.3     1  UNL1        0.0214
      2 C           1.9795   65.9636   65.2963 C.3     1  UNL1        0.0913
      3 N           7.1676   71.3744   66.2596 N.pl3   1  UNL1       -0.3570
      4 C           5.8982   70.8615   66.5133 C.ar    1  UNL1        0.0416
      5 C           5.2221   71.2786   67.6378 C.ar    1  UNL1        0.0141
      6 C           4.0888   70.5947   68.0486 C.ar    1  UNL1        0.0010
      7 C           3.6044   69.4448   67.3653 C.ar    1  UNL1       -0.0008
      8 C           4.1895   69.0657   66.1451 C.ar    1  UNL1        0.0143
      9 C           5.3961   69.7576   65.8004 C.ar    1  UNL1        0.0153
     10 C           3.5699   68.0104   65.3462 C.2     1  UNL1        0.0482
     11 N           2.7030   67.1216   66.0000 N.pl3   1  UNL1       -0.3018
     12 C           2.3445   67.3706   67.3359 C.3     1  UNL1        0.1191
     13 C           1.7664   66.3867   68.1905 C.2     1  UNL1        0.0118
     14 C           1.5386   66.5839   69.5580 C.2     1  UNL1        0.0391
     15 N           1.2710   65.5125   70.4022 N.pl3   1  UNL1       -0.3572
     16 C           1.6504   67.8554   70.0645 C.2     1  UNL1        0.0136
     17 C           2.1480   68.8598   69.2514 C.2     1  UNL1       -0.0011
     18 C           2.6574   68.5983   67.9557 C.2     1  UNL1       -0.0001
     19 H           7.3390   72.3044   66.6356 H       1  UNL1        0.1424
     20 H           7.5159   71.2706   65.3144 H       1  UNL1        0.1424
     21 H           0.4846   64.9273   70.1383 H       1  UNL1        0.1423
     22 H           1.2504   65.7333   71.3972 H       1  UNL1        0.1423
     23 C           3.7561   68.0131   63.8256 C.ar    1  UNL1        0.0133
     24 C           2.9708   68.7027   62.8923 C.ar    1  UNL1        0.0012
     25 C           3.1705   68.6792   61.5004 C.ar    1  UNL1        0.0000
     26 C           4.1470   67.8743   60.9543 C.ar    1  UNL1        0.0000
     27 C           4.9532   67.1472   61.8141 C.ar    1  UNL1        0.0000
     28 C           4.7856   67.2479   63.2140 C.ar    1  UNL1        0.0012
     29 C           3.6567   64.0835   66.1296 C.3     1  UNL1        0.0018
     30 C           2.9630   62.8774   66.7211 C.3     1  UNL1        0.0005
     31 C           3.6067   62.2493   67.8933 C.3     1  UNL1        0.0063
     32 C           2.4941   61.8683   68.9741 C.3     1  UNL1        0.0472
     33 C           2.6462   60.5058   69.4955 C.ar    1  UNL1        0.0781
     34 C           2.9862   59.3801   68.7177 C.ar    1  UNL1        0.1381
     35 N           3.2910   58.3523   69.4927 N.ar    1  UNL1       -0.1275
     36 N           3.0973   58.7118   70.7430 N.ar    1  UNL1       -0.0641
     37 N           2.5292   59.9513   70.7687 N.ar    1  UNL1       -0.2340
     38 C           2.1999   60.3788   72.1251 C.3     1  UNL1        0.1499
     39 C           2.2902   59.5835   73.4622 C.3     1  UNL1        0.1138
     40 N           1.2795   59.8316   74.5421 N.pl3   1  UNL1       -0.3312
     41 H           0.6630   60.6249   74.3640 H       1  UNL1        0.1469
     42 C           1.1178   59.1578   75.7470 C.ar    1  UNL1        0.0432
     43 C           0.1128   58.2027   76.0094 C.ar    1  UNL1        0.0045
     44 C           0.0302   57.3744   77.0835 C.ar    1  UNL1        0.0561
     45 N           0.8371   57.5481   78.1359 N.ar    1  UNL1       -0.2499
     46 C           1.6478   58.5817   78.0223 C.ar    1  UNL1        0.0820
     47 C           2.2187   58.9069   79.2766 C.ar    1  UNL1        0.0191
     48 C           3.0002   60.0129   79.4367 C.ar    1  UNL1        0.0015
     49 C           3.3610   60.7875   78.3522 C.ar    1  UNL1        0.0001
     50 C           2.8536   60.4643   77.0643 C.ar    1  UNL1        0.0027
     51 C           1.9176   59.4210   76.9216 C.ar    1  UNL1        0.0305
     52 C          -0.8765   56.2038   77.2885 C.3     1  UNL1        0.0455
     53 C          -2.1457   56.3563   76.4465 C.3     1  UNL1        0.0066
     54 C          -1.6437   56.6680   75.1063 C.3     1  UNL1        0.0052
     55 C          -0.8080   57.8839   74.9103 C.3     1  UNL1        0.0288
@<TRIPOS>BOND
     1     3     4    1
     2     3    19    1
     3     3    20    1
     4     4     5   ar
     5     4     9   ar
     6     5     6   ar
     7     6     7   ar
     8     7     8   ar
     9     7    18    2
    10     8     9   ar
    11     8    10    2
    12    10    23    1
    13    10    11    1
    14    23    24   ar
    15    23    28   ar
    16    24    25   ar
    17    25    26   ar
    18    26    27   ar
    19    27    28   ar
    20    11     2    1
    21    11    12    1
    22     2     1    1
    23     1    29    1
    24    29    30    1
    25    30    31    1
    26    31    32    1
    27    32    33    1
    28    33    34   ar
    29    33    37   ar
    30    34    35   ar
    31    35    36   ar
    32    36    37   ar
    33    37    38    1
    34    38    39    1
    35    39    40    1
    36    40    42    1
    37    40    41    1
    38    42    43   ar
    39    42    51   ar
    40    43    44   ar
    41    43    55    1
    42    44    45   ar
    43    44    52    1
    44    45    46   ar
    45    46    47   ar
    46    46    51   ar
    47    47    48   ar
    48    48    49   ar
    49    49    50   ar
    50    50    51   ar
    51    52    53    1
    52    53    54    1
    53    54    55    1
    54    12    13    1
    55    12    18    1
    56    13    14    2
    57    14    15    1
    58    14    16    1
    59    15    21    1
    60    15    22    1
    61    16    17    2
    62    17    18    1
#	Name:			CHEMBL1203984
#	Creating user name:	trannguyen
#	Creation time:		Tue Feb  8 17:54:08 2022


#	Modifying user name:	trannguyen
#	Modification time:	Tue Feb  8 17:54:08 2022

@<TRIPOS>MOLECULE
CHEMBL1203984
 65 68 0 0 0
SMALL
GASTEIGER

@<TRIPOS>ATOM
      1 C          -8.5406   77.2185   74.0427 C.ar    1  UNL1        0.1755
      2 C          -9.2452   76.0552   74.4191 C.ar    1  UNL1        0.0770
      3 C          -9.7350   75.1323   73.4524 C.ar    1  UNL1        0.1464
      4 C          -9.4960   75.3708   72.1057 C.ar    1  UNL1        0.0905
      5 C          -8.8895   76.5785   71.7248 C.ar    1  UNL1        0.0476
      6 C          -8.4527   77.5259   72.6289 C.ar    1  UNL1        0.1729
      7 C          -9.8641   74.3386   71.0959 C.2     1  UNL1        0.2489
      8 O         -10.4295   74.6555   70.0566 O.2     1  UNL1       -0.2700
      9 N          -9.6479   73.0359   71.3526 N.am    1  UNL1       -0.3008
     10 H          -9.9111   72.3131   70.6785 H       1  UNL1        0.1497
     11 C          -8.9922   72.6160   72.5480 C.3     1  UNL1        0.0897
     12 C          -9.4299   71.2043   72.8083 C.3     1  UNL1        0.0213
     13 C         -10.1284   70.6708   71.6075 C.3     1  UNL1        0.0023
     14 C         -10.5536   69.2643   71.9332 C.3     1  UNL1        0.0097
     15 C          -9.9151   68.8948   73.2377 C.3     1  UNL1        0.0866
     16 C          -9.1969   67.5951   73.1572 C.2     1  UNL1        0.2379
     17 O          -8.6512   67.2381   72.1288 O.2     1  UNL1       -0.2736
     18 N          -9.2458   66.8078   74.2473 N.am    1  UNL1       -0.2359
     19 H          -8.8517   65.8786   74.1751 H       1  UNL1        0.1727
     20 N          -9.8784   67.2543   75.3946 N.pl3   1  UNL1       -0.2635
     21 H         -10.6913   67.8603   75.2764 H       1  UNL1        0.1700
     22 C          -9.5078   66.8255   76.7156 C.ar    1  UNL1        0.0597
     23 C          -8.8640   65.5556   76.8076 C.ar    1  UNL1        0.0060
     24 C          -8.4565   65.0756   78.0667 C.ar    1  UNL1        0.0562
     25 N          -8.6043   65.8443   79.1661 N.ar    1  UNL1       -0.2499
     26 C          -9.2083   67.0545   79.1446 C.ar    1  UNL1        0.0821
     27 C          -9.3323   67.7533   80.3502 C.ar    1  UNL1        0.0191
     28 C          -9.9799   68.9810   80.3947 C.ar    1  UNL1        0.0015
     29 C         -10.5509   69.5003   79.2428 C.ar    1  UNL1        0.0001
     30 C         -10.4553   68.8118   78.0302 C.ar    1  UNL1        0.0028
     31 C          -9.7279   67.5820   77.9314 C.ar    1  UNL1        0.0319
     32 C          -7.8541   63.7053   78.2376 C.3     1  UNL1        0.0455
     33 C          -8.0616   62.7948   77.0213 C.3     1  UNL1        0.0066
     34 C          -7.6515   63.5417   75.7710 C.3     1  UNL1        0.0052
     35 C          -8.6018   64.7215   75.5534 C.3     1  UNL1        0.0289
     36 O          -7.9006   77.9508   75.0240 O.3     1  UNL1       -0.4659
     37 C          -6.9466   77.3463   75.8973 C.3     1  UNL1        0.2659
     38 C          -6.2127   78.3573   76.9442 C.3     1  UNL1        0.1566
     39 N          -6.2184   79.9251   76.8904 N.4     1  UNL1        0.2998
     40 C          -8.3006   80.4474   78.3905 C.3     1  UNL1        0.0671
     41 C          -7.6887   80.2639   76.9794 C.3     1  UNL1        0.1088
     42 C          -5.7599   80.7330   75.6787 C.3     1  UNL1        0.1088
     43 C          -6.7207   80.7981   74.4462 C.3     1  UNL1        0.0671
     44 C          -5.4054   80.3456   78.0917 C.3     1  UNL1        0.1088
     45 C          -4.1016   81.1605   77.9229 C.3     1  UNL1        0.0671
     46 O          -7.9196   78.6452   72.0335 O.3     1  UNL1       -0.4660
     47 C          -8.5741   79.7374   71.4889 C.3     1  UNL1        0.2659
     48 C          -7.5667   80.6845   70.6686 C.3     1  UNL1        0.1566
     49 N          -7.2402   80.2290   69.2627 N.4     1  UNL1        0.2998
     50 C          -8.4334   79.7786   68.4293 C.3     1  UNL1        0.1088
     51 C          -8.8821   78.2698   68.6181 C.3     1  UNL1        0.0671
     52 C          -6.4755   78.9748   69.4733 C.3     1  UNL1        0.1088
     53 C          -5.0906   78.9901   68.9244 C.3     1  UNL1        0.0671
     54 C          -6.5392   81.3423   68.5083 C.3     1  UNL1        0.1088
     55 C          -6.9349   81.3835   67.0179 C.3     1  UNL1        0.0671
     56 O         -10.4109   73.9970   73.8013 O.3     1  UNL1       -0.4688
     57 C         -10.5511   73.6347   75.1011 C.3     1  UNL1        0.2658
     58 C          -9.4048   72.8200   75.6985 C.3     1  UNL1        0.1566
     59 N          -8.7597   73.5054   76.8793 N.4     1  UNL1        0.2998
     60 C          -9.5230   74.7938   77.0700 C.3     1  UNL1        0.1088
     61 C          -9.4489   75.4386   78.4764 C.3     1  UNL1        0.0671
     62 C          -7.3122   73.8850   76.6167 C.3     1  UNL1        0.1088
     63 C          -6.7158   73.8867   75.1798 C.3     1  UNL1        0.0671
     64 C          -8.8553   72.6624   78.1281 C.3     1  UNL1        0.1088
     65 C          -7.5918   71.8430   78.4831 C.3     1  UNL1        0.0671
@<TRIPOS>UNITY_ATOM_ATTR
39 1
charge 1
49 1
charge 1
59 1
charge 1
@<TRIPOS>BOND
     1    40    41    1
     2    41    39    1
     3    39    42    1
     4    39    44    1
     5    39    38    1
     6    42    43    1
     7    44    45    1
     8    38    37    1
     9    37    36    1
    10    36     1    1
    11     1     2   ar
    12     1     6   ar
    13     2     3   ar
    14     3    56    1
    15     3     4   ar
    16    56    57    1
    17    57    58    1
    18    58    59    1
    19    59    64    1
    20    59    62    1
    21    59    60    1
    22    64    65    1
    23    62    63    1
    24    60    61    1
    25     4     7    1
    26     4     5   ar
    27     7     8    2
    28     7     9   am
    29     9    11    1
    30     9    10    1
    31    11    12    1
    32    12    13    1
    33    13    14    1
    34    14    15    1
    35    15    16    1
    36    16    17    2
    37    16    18   am
    38    18    20    1
    39    18    19    1
    40    20    22    1
    41    20    21    1
    42    22    23   ar
    43    22    31   ar
    44    23    24   ar
    45    23    35    1
    46    24    25   ar
    47    24    32    1
    48    25    26   ar
    49    26    27   ar
    50    26    31   ar
    51    27    28   ar
    52    28    29   ar
    53    29    30   ar
    54    30    31   ar
    55    32    33    1
    56    33    34    1
    57    34    35    1
    58     5     6   ar
    59     6    46    1
    60    46    47    1
    61    47    48    1
    62    48    49    1
    63    49    54    1
    64    49    52    1
    65    49    50    1
    66    54    55    1
    67    52    53    1
    68    50    51    1
#	Name:			CHEMBL1203985
#	Creating user name:	trannguyen
#	Creation time:		Tue Feb  8 17:54:08 2022


#	Modifying user name:	trannguyen
#	Modification time:	Tue Feb  8 17:54:08 2022

@<TRIPOS>MOLECULE
CHEMBL1203985
 45 48 0 0 0
SMALL
GASTEIGER

@<TRIPOS>ATOM
      1 C          -4.2935   58.5907   76.8086 C.3     1  UNL1        0.0023
      2 C          -5.2559   59.2409   75.8525 C.3     1  UNL1        0.0213
      3 C          -6.6883   58.9697   76.2791 C.3     1  UNL1        0.0897
      4 C          -8.2152   60.7799   75.6685 C.2     1  UNL1        0.2458
      5 O          -8.9514   61.3061   74.8447 O.2     1  UNL1       -0.2701
      6 N          -7.5629   59.6316   75.3521 N.am    1  UNL1       -0.3009
      7 H          -7.6655   59.2064   74.4270 H       1  UNL1        0.1497
      8 C          -7.9352   62.6798   79.5108 C.ar    1  UNL1        0.1389
      9 C          -6.9436   62.8945   78.5512 C.ar    1  UNL1        0.0370
     10 C          -7.0203   62.2516   77.3111 C.ar    1  UNL1        0.0076
     11 C          -8.0876   61.3778   77.0244 C.ar    1  UNL1        0.0536
     12 C          -9.0453   61.1273   78.0252 C.ar    1  UNL1        0.0076
     13 C          -8.9697   61.7632   79.2373 C.ar    1  UNL1        0.0370
     14 O          -7.9341   63.4065   80.6592 O.3     1  UNL1       -0.4691
     15 C          -7.3910   64.6742   80.6591 C.3     1  UNL1        0.2658
     16 C          -8.3808   65.7584   80.2348 C.3     1  UNL1        0.1566
     17 N          -7.8231   66.7776   79.2647 N.4     1  UNL1        0.2998
     18 C          -8.2717   66.4032   77.8663 C.3     1  UNL1        0.1088
     19 C          -9.5207   65.5049   77.6913 C.3     1  UNL1        0.0671
     20 C          -5.4794   66.4999   78.1812 C.3     1  UNL1        0.0671
     21 C          -6.3325   66.6695   79.4381 C.3     1  UNL1        0.1088
     22 C          -8.3246   68.1614   79.5976 C.3     1  UNL1        0.1088
     23 C          -7.2529   69.2468   79.8589 C.3     1  UNL1        0.0671
     24 C          -3.6188   57.4269   76.1098 C.3     1  UNL1        0.0097
     25 C          -2.2158   57.2896   76.6605 C.3     1  UNL1        0.0866
     26 C          -1.1897   57.9152   75.7797 C.2     1  UNL1        0.2379
     27 O          -1.1193   57.6187   74.5945 O.2     1  UNL1       -0.2736
     28 N          -0.3894   58.8975   76.2912 N.am    1  UNL1       -0.2359
     29 H           0.2477   59.3578   75.6818 H       1  UNL1        0.1727
     30 N          -0.4854   59.1978   77.6408 N.pl3   1  UNL1       -0.2635
     31 H          -1.0066   58.5461   78.2316 H       1  UNL1        0.1700
     32 C           0.0483   60.4006   78.2383 C.ar    1  UNL1        0.0597
     33 C          -0.8805   61.4588   78.4981 C.ar    1  UNL1        0.0060
     34 C          -0.4158   62.6805   79.0285 C.ar    1  UNL1        0.0562
     35 N           0.8924   62.8425   79.3125 N.ar    1  UNL1       -0.2499
     36 C           1.8139   61.8731   79.1303 C.ar    1  UNL1        0.0821
     37 C           3.1411   62.1549   79.4749 C.ar    1  UNL1        0.0191
     38 C           4.1275   61.1884   79.3438 C.ar    1  UNL1        0.0015
     39 C           3.7900   59.9171   78.9073 C.ar    1  UNL1        0.0001
     40 C           2.4692   59.6087   78.5675 C.ar    1  UNL1        0.0028
     41 C           1.4385   60.5989   78.6181 C.ar    1  UNL1        0.0319
     42 C          -1.3373   63.8443   79.2873 C.3     1  UNL1        0.0455
     43 C          -2.6771   63.7329   78.5561 C.3     1  UNL1        0.0066
     44 C          -3.2678   62.3656   78.8128 C.3     1  UNL1        0.0052
     45 C          -2.3720   61.2910   78.1935 C.3     1  UNL1        0.0289
@<TRIPOS>UNITY_ATOM_ATTR
17 1
charge 1
@<TRIPOS>BOND
     1    20    21    1
     2    21    17    1
     3    17    22    1
     4    17    18    1
     5    17    16    1
     6    22    23    1
     7    18    19    1
     8    16    15    1
     9    15    14    1
    10    14     8    1
    11     8     9   ar
    12     8    13   ar
    13     9    10   ar
    14    10    11   ar
    15    11     4    1
    16    11    12   ar
    17     4     5    2
    18     4     6   am
    19     6     3    1
    20     6     7    1
    21     3     2    1
    22     2     1    1
    23     1    24    1
    24    24    25    1
    25    25    26    1
    26    26    27    2
    27    26    28   am
    28    28    30    1
    29    28    29    1
    30    30    32    1
    31    30    31    1
    32    32    33   ar
    33    32    41   ar
    34    33    34   ar
    35    33    45    1
    36    34    35   ar
    37    34    42    1
    38    35    36   ar
    39    36    37   ar
    40    36    41   ar
    41    37    38   ar
    42    38    39   ar
    43    39    40   ar
    44    40    41   ar
    45    42    43    1
    46    43    44    1
    47    44    45    1
    48    12    13   ar
#	Name:			CHEMBL1203986
#	Creating user name:	trannguyen
#	Creation time:		Tue Feb  8 17:54:08 2022


#	Modifying user name:	trannguyen
#	Modification time:	Tue Feb  8 17:54:08 2022

@<TRIPOS>MOLECULE
CHEMBL1203986
 55 58 0 0 0
SMALL
GASTEIGER

@<TRIPOS>ATOM
      1 C           4.3314   63.1786   68.3204 C.2     1  UNL1        0.2460
      2 O           5.3001   63.5944   68.9414 O.2     1  UNL1       -0.2701
      3 N           3.7202   62.0278   68.7275 N.am    1  UNL1       -0.3009
      4 H           4.0725   61.5213   69.5462 H       1  UNL1        0.1497
      5 C           3.5823   64.3108   64.7641 C.ar    1  UNL1        0.1420
      6 C           2.7284   65.3659   64.9729 C.ar    1  UNL1        0.0738
      7 C           2.3827   65.7131   66.2512 C.ar    1  UNL1        0.1420
      8 C           3.0090   65.1159   67.3133 C.ar    1  UNL1        0.0416
      9 C           3.8192   63.9456   67.1399 C.ar    1  UNL1        0.0594
     10 C           4.1498   63.6102   65.8542 C.ar    1  UNL1        0.0416
     11 O           1.5603   66.7848   66.4476 O.3     1  UNL1       -0.4690
     12 C           1.9497   68.0467   66.0824 C.3     1  UNL1        0.2658
     13 C           1.7282   69.1376   67.1422 C.3     1  UNL1        0.1566
     14 N           3.0299   69.5501   67.8292 N.4     1  UNL1        0.2998
     15 C           4.1909   69.3833   66.8861 C.3     1  UNL1        0.1088
     16 C           5.4623   70.1696   67.2297 C.3     1  UNL1        0.0671
     17 C           3.1563   68.6269   69.0023 C.3     1  UNL1        0.1088
     18 C           1.8806   68.0338   69.5844 C.3     1  UNL1        0.0671
     19 C           2.9686   70.9725   68.3495 C.3     1  UNL1        0.1088
     20 C           3.7877   71.4343   69.5911 C.3     1  UNL1        0.0671
     21 O           3.7750   63.8517   63.5224 O.3     1  UNL1       -0.4690
     22 C           4.5437   64.5644   62.6927 C.3     1  UNL1        0.2658
     23 C           4.7844   66.0733   63.0853 C.3     1  UNL1        0.1566
     24 N           3.8041   67.4745   63.5130 N.4     1  UNL1        0.2998
     25 C           1.5615   67.9107   62.8135 C.3     1  UNL1        0.0671
     26 C           4.6540   67.1637   62.3452 C.3     1  UNL1        0.1088
     27 C           5.2439   68.3626   63.6255 C.3     1  UNL1        0.1088
     28 C           5.8787   69.8057   63.7708 C.3     1  UNL1        0.0671
     29 C           4.0988   67.8379   61.5703 C.3     1  UNL1        0.1088
     30 C           3.6612   69.0341   60.5416 C.3     1  UNL1        0.0671
     31 C           2.5802   61.4808   68.0094 C.3     1  UNL1        0.0897
     32 C           1.7081   60.7352   68.9986 C.3     1  UNL1        0.0213
     33 C           2.5845   59.9044   70.0563 C.3     1  UNL1        0.0023
     34 C           2.1400   60.2857   71.3797 C.3     1  UNL1        0.0097
     35 C           2.1386   59.0259   72.2066 C.3     1  UNL1        0.0866
     36 C           3.1167   59.1220   73.3283 C.2     1  UNL1        0.2379
     37 O           4.3203   59.1369   73.0984 O.2     1  UNL1       -0.2736
     38 N           2.6619   59.2575   74.5906 N.am    1  UNL1       -0.2359
     39 H           3.3411   59.3853   75.3471 H       1  UNL1        0.1727
     40 N           1.3094   59.2503   74.8526 N.pl3   1  UNL1       -0.2635
     41 H           0.6756   59.6337   74.1382 H       1  UNL1        0.1700
     42 C           0.7525   58.8774   76.1199 C.ar    1  UNL1        0.0597
     43 C           1.3182   59.4421   77.2963 C.ar    1  UNL1        0.0060
     44 C           0.8485   59.0236   78.5607 C.ar    1  UNL1        0.0562
     45 N          -0.1411   58.1037   78.6473 N.ar    1  UNL1       -0.2499
     46 C          -0.7401   57.5631   77.5606 C.ar    1  UNL1        0.0821
     47 C          -1.7739   56.6313   77.7515 C.ar    1  UNL1        0.0191
     48 C          -2.4332   56.0809   76.6571 C.ar    1  UNL1        0.0015
     49 C          -2.0992   56.4840   75.3697 C.ar    1  UNL1        0.0001
     50 C          -1.0765   57.4098   75.1617 C.ar    1  UNL1        0.0028
     51 C          -0.3411   57.9495   76.2536 C.ar    1  UNL1        0.0319
     52 C           1.4391   59.5516   79.8438 C.3     1  UNL1        0.0455
     53 C           2.7963   60.2373   79.6493 C.3     1  UNL1        0.0066
     54 C           2.6941   61.2326   78.5145 C.3     1  UNL1        0.0052
     55 C           2.4227   60.4929   77.2011 C.3     1  UNL1        0.0289
@<TRIPOS>UNITY_ATOM_ATTR
14 1
charge 1
24 1
charge 1
@<TRIPOS>BOND
     1    25    26    1
     2    26    24    1
     3    24    29    1
     4    24    27    1
     5    24    23    1
     6    29    30    1
     7    27    28    1
     8    23    22    1
     9    22    21    1
    10    21     5    1
    11     5     6   ar
    12     5    10   ar
    13     6     7   ar
    14     7    11    1
    15     7     8   ar
    16    11    12    1
    17    12    13    1
    18    13    14    1
    19    14    15    1
    20    14    19    1
    21    14    17    1
    22    15    16    1
    23    19    20    1
    24    17    18    1
    25     8     9   ar
    26     9     1    1
    27     9    10   ar
    28     1     2    2
    29     1     3   am
    30     3    31    1
    31     3     4    1
    32    31    32    1
    33    32    33    1
    34    33    34    1
    35    34    35    1
    36    35    36    1
    37    36    37    2
    38    36    38   am
    39    38    40    1
    40    38    39    1
    41    40    42    1
    42    40    41    1
    43    42    43   ar
    44    42    51   ar
    45    43    44   ar
    46    43    55    1
    47    44    45   ar
    48    44    52    1
    49    45    46   ar
    50    46    47   ar
    51    46    51   ar
    52    47    48   ar
    53    48    49   ar
    54    49    50   ar
    55    50    51   ar
    56    52    53    1
    57    53    54    1
    58    54    55    1
#	Name:			CHEMBL1255901
#	Creating user name:	trannguyen
#	Creation time:		Tue Feb  8 17:54:08 2022


#	Modifying user name:	trannguyen
#	Modification time:	Tue Feb  8 17:54:08 2022

@<TRIPOS>MOLECULE
CHEMBL1255901
 21 23 0 0 0
SMALL
GASTEIGER

@<TRIPOS>ATOM
      1 C           3.6904   65.4357   63.5600 C.3     1  UNL1        0.0301
      2 C           4.5874   66.4254   64.2299 C.2     1  UNL1       -0.0324
      3 C           4.2147   67.6635   64.6202 C.2     1  UNL1       -0.0279
      4 C           2.8183   68.3187   64.6058 C.3     1  UNL1        0.0466
      5 C           2.3928   68.3480   63.1971 C.2     1  UNL1       -0.0304
      6 C           3.3953   68.8370   62.4157 C.2     1  UNL1       -0.0459
      7 C           3.3776   68.5298   60.9498 C.3     1  UNL1        0.0261
      8 C           4.7390   69.4374   63.1423 C.3     1  UNL1        0.0440
      9 C           5.1123   68.8673   64.6975 C.3     1  UNL1        0.0785
     10 N           6.5473   68.5499   64.7459 N.3     1  UNL1       -0.3169
     11 C           4.6815   69.5839   66.0728 C.ar    1  UNL1        0.0058
     12 C           5.6749   70.3218   66.8578 C.ar    1  UNL1        0.0033
     13 C           5.4026   70.7889   68.0897 C.ar    1  UNL1        0.0603
     14 C           4.0547   70.6120   68.6638 C.ar    1  UNL1        0.2575
     15 O           3.7560   71.0831   69.7699 O.2     1  UNL1       -0.2672
     16 N           3.1759   69.8911   67.9124 N.ar    1  UNL1       -0.3248
     17 H           2.2583   69.7575   68.3209 H       1  UNL1        0.1686
     18 C           3.4706   69.3473   66.6791 C.ar    1  UNL1        0.0342
     19 C           2.3409   68.5117   66.0283 C.3     1  UNL1        0.0518
     20 H           6.8154   68.0471   63.9047 H       1  UNL1        0.1193
     21 H           6.7023   67.9156   65.5282 H       1  UNL1        0.1193
@<TRIPOS>BOND
     1     1     2    1
     2     2     3    2
     3     3     4    1
     4     3     9    1
     5     4     5    1
     6     4    19    1
     7     5     6    2
     8     6     7    1
     9     6     8    1
    10     8     9    1
    11     9    10    1
    12     9    11    1
    13    10    20    1
    14    10    21    1
    15    11    12   ar
    16    11    18   ar
    17    12    13   ar
    18    13    14   ar
    19    14    15    2
    20    14    16   ar
    21    16    17    1
    22    16    18   ar
    23    18    19    1
#	Name:			CHEMBL1678
#	Creating user name:	trannguyen
#	Creation time:		Tue Feb  8 17:54:08 2022


#	Modifying user name:	trannguyen
#	Modification time:	Tue Feb  8 17:54:08 2022

@<TRIPOS>MOLECULE
CHEMBL1678
 28 31 0 0 0
SMALL
GASTEIGER

@<TRIPOS>ATOM
      1 C           1.1980   61.6196   78.4007 C.ar    1  UNL1        0.1721
      2 C           1.4528   60.4606   79.1704 C.ar    1  UNL1        0.0359
      3 C           1.3904   59.2004   78.5385 C.ar    1  UNL1       -0.0158
      4 C           1.2408   59.1601   77.1808 C.ar    1  UNL1        0.0340
      5 C           1.0006   60.2568   76.3841 C.ar    1  UNL1        0.0426
      6 C           0.8984   61.5161   77.0060 C.ar    1  UNL1        0.1725
      7 C           1.2554   57.8136   76.7912 C.2     1  UNL1        0.1727
      8 O           1.9589   57.3859   75.8853 O.2     1  UNL1       -0.2913
      9 C           0.7198   57.0102   77.9138 C.3     1  UNL1        0.0663
     10 C           1.4366   57.7653   79.1121 C.3     1  UNL1        0.0342
     11 C           0.3381   63.3103   79.9704 C.3     1  UNL1        0.2526
     12 O           1.2344   62.8490   79.0221 O.3     1  UNL1       -0.4684
     13 O           0.4637   62.5942   76.3394 O.3     1  UNL1       -0.4684
     14 C          -0.8053   63.1042   76.2769 C.3     1  UNL1        0.2526
     15 C           0.4176   55.5322   77.4453 C.3     1  UNL1        0.0081
     16 C          -1.1726   55.3809   77.2728 C.3     1  UNL1        0.0032
     17 C          -2.1263   56.3301   78.0406 C.3     1  UNL1        0.0174
     18 C          -2.3746   57.6877   77.3549 C.3     1  UNL1        0.0724
     19 N          -2.7567   57.5441   75.9245 N.3     1  UNL1       -0.2690
     20 C          -1.7110   56.7669   75.2287 C.3     1  UNL1        0.0724
     21 C          -1.6356   55.3276   75.7858 C.3     1  UNL1        0.0174
     22 C          -4.1734   57.0964   75.7180 C.3     1  UNL1        0.0991
     23 C          -5.2326   58.0085   76.3512 C.ar    1  UNL1       -0.0061
     24 C          -5.4106   59.3269   75.8821 C.ar    1  UNL1       -0.0029
     25 C          -6.3837   60.1601   76.4537 C.ar    1  UNL1       -0.0003
     26 C          -7.1851   59.6935   77.4978 C.ar    1  UNL1       -0.0000
     27 C          -7.0024   58.4037   77.9897 C.ar    1  UNL1       -0.0003
     28 C          -6.0282   57.5726   77.4343 C.ar    1  UNL1       -0.0029
@<TRIPOS>BOND
     1    11    12    1
     2    12     1    1
     3     1     2   ar
     4     1     6   ar
     5     2     3   ar
     6     3     4   ar
     7     3    10    1
     8     4     5   ar
     9     4     7    1
    10     5     6   ar
    11     6    13    1
    12    13    14    1
    13     7     8    2
    14     7     9    1
    15     9    15    1
    16     9    10    1
    17    15    16    1
    18    16    17    1
    19    16    21    1
    20    17    18    1
    21    18    19    1
    22    19    22    1
    23    19    20    1
    24    22    23    1
    25    23    24   ar
    26    23    28   ar
    27    24    25   ar
    28    25    26   ar
    29    26    27   ar
    30    27    28   ar
    31    20    21    1
#	Name:			CHEMBL208599
#	Creating user name:	trannguyen
#	Creation time:		Tue Feb  8 17:54:08 2022


#	Modifying user name:	trannguyen
#	Modification time:	Tue Feb  8 17:54:08 2022

@<TRIPOS>MOLECULE
CHEMBL208599
 23 26 0 0 0
SMALL
GASTEIGER

@<TRIPOS>ATOM
      1 C          -0.6098   57.5699   77.5854 C.2     1  UNL1       -0.0482
      2 C          -0.9782   56.3119   77.8955 C.2     1  UNL1       -0.0345
      3 C          -1.7279   55.4092   76.9396 C.3     1  UNL1        0.0276
      4 C          -3.2282   55.3986   77.2594 C.3     1  UNL1        0.0498
      5 C          -3.9633   56.6360   76.7917 C.ar    1  UNL1        0.0565
      6 N          -5.2145   56.7700   77.2889 N.ar    1  UNL1       -0.2499
      7 C          -5.9280   57.8523   76.9650 C.ar    1  UNL1        0.0829
      8 C          -7.1794   57.9874   77.5475 C.ar    1  UNL1        0.0305
      9 C          -7.9796   59.0967   77.2942 C.ar    1  UNL1        0.0592
     10 CL         -9.5242   59.2302   78.0397 Cl      1  UNL1       -0.0822
     11 C          -7.5333   60.1005   76.4494 C.ar    1  UNL1        0.0115
     12 C          -6.2802   59.9775   75.8490 C.ar    1  UNL1        0.0036
     13 C          -5.4563   58.8463   76.0814 C.ar    1  UNL1        0.0303
     14 C          -4.1806   58.6424   75.4790 C.ar    1  UNL1        0.0400
     15 N          -3.6200   59.6471   74.6503 N.pl3   1  UNL1       -0.3572
     16 C          -3.3955   57.5430   75.8858 C.ar    1  UNL1        0.0043
     17 C          -1.9597   57.3411   75.4097 C.3     1  UNL1        0.0290
     18 C          -0.9701   58.1881   76.2463 C.3     1  UNL1        0.0261
     19 C          -1.5482   55.8660   75.4918 C.3     1  UNL1        0.0095
     20 H          -4.3139   60.1638   74.1212 H       1  UNL1        0.1423
     21 H          -2.8881   59.3180   74.0322 H       1  UNL1        0.1423
     22 C           1.6426   58.3181   78.4392 C.3     1  UNL1        0.0047
     23 C           0.1314   58.4472   78.5655 C.3     1  UNL1        0.0217
@<TRIPOS>BOND
     1    22    23    1
     2    23     1    1
     3     1     2    2
     4     1    18    1
     5     2     3    1
     6     3     4    1
     7     3    19    1
     8     4     5    1
     9     5     6   ar
    10     5    16   ar
    11     6     7   ar
    12     7     8   ar
    13     7    13   ar
    14     8     9   ar
    15     9    11   ar
    16     9    10    1
    17    11    12   ar
    18    12    13   ar
    19    13    14   ar
    20    14    16   ar
    21    14    15    1
    22    15    20    1
    23    15    21    1
    24    16    17    1
    25    17    18    1
    26    17    19    1
#	Name:			CHEMBL2093912
#	Creating user name:	trannguyen
#	Creation time:		Tue Feb  8 17:54:08 2022


#	Modifying user name:	trannguyen
#	Modification time:	Tue Feb  8 17:54:08 2022

@<TRIPOS>MOLECULE
CHEMBL2093912
 28 31 0 0 0
SMALL
GASTEIGER

@<TRIPOS>ATOM
      1 C          -1.7775   54.9289   75.4832 C.ar    1  UNL1        0.1721
      2 C          -3.0870   55.4136   75.5218 C.ar    1  UNL1        0.0359
      3 C          -3.2714   56.7877   75.7745 C.ar    1  UNL1       -0.0158
      4 C          -2.3079   57.6701   75.5880 C.ar    1  UNL1        0.0340
      5 C          -0.9951   57.2241   75.7597 C.ar    1  UNL1        0.0426
      6 C          -0.7284   55.8288   75.7836 C.ar    1  UNL1        0.1725
      7 C          -2.8577   58.9690   75.9283 C.2     1  UNL1        0.1727
      8 O          -3.4453   59.6775   75.1255 O.2     1  UNL1       -0.2913
      9 C          -3.3477   58.8042   77.2928 C.3     1  UNL1        0.0663
     10 C          -4.1598   57.4188   76.8303 C.3     1  UNL1        0.0342
     11 C          -2.5098   52.5535   75.4427 C.3     1  UNL1        0.2526
     12 O          -1.5924   53.5790   75.3195 O.3     1  UNL1       -0.4684
     13 O           0.4450   55.3631   76.2356 O.3     1  UNL1       -0.4684
     14 C           0.6800   54.7211   77.4103 C.3     1  UNL1        0.2526
     15 C          -1.9755   59.4921   77.9309 C.3     1  UNL1        0.0081
     16 C          -1.1399   60.8274   78.0296 C.3     1  UNL1        0.0032
     17 C          -0.4138   61.1385   79.3552 C.3     1  UNL1        0.0174
     18 C           0.8227   60.2630   79.6747 C.3     1  UNL1        0.0724
     19 N           2.0608   60.4692   78.9088 N.3     1  UNL1       -0.2690
     20 C           1.2206   59.9285   77.2510 C.3     1  UNL1        0.0724
     21 C           0.0044   60.8584   76.9297 C.3     1  UNL1        0.0174
     22 C           2.8491   61.2595   78.6362 C.3     1  UNL1        0.0991
     23 C           4.0725   60.7775   79.3975 C.ar    1  UNL1       -0.0061
     24 C           5.0103   61.6531   79.9886 C.ar    1  UNL1       -0.0029
     25 C           6.1210   61.1395   80.6710 C.ar    1  UNL1       -0.0003
     26 C           6.3155   59.7588   80.7598 C.ar    1  UNL1       -0.0000
     27 C           5.4044   58.8865   80.1625 C.ar    1  UNL1       -0.0003
     28 C           4.2901   59.3912   79.4879 C.ar    1  UNL1       -0.0029
@<TRIPOS>BOND
     1    11    12    1
     2    12     1    1
     3     1     2   ar
     4     1     6   ar
     5     2     3   ar
     6     3     4   ar
     7     3    10    1
     8     4     5   ar
     9     4     7    1
    10     5     6   ar
    11     6    13    1
    12    13    14    1
    13     7     8    2
    14     7     9    1
    15     9    10    1
    16     9    15    1
    17    15    16    1
    18    16    17    1
    19    16    21    1
    20    17    18    1
    21    18    19    1
    22    19    22    1
    23    19    20    1
    24    22    23    1
    25    23    24   ar
    26    23    28   ar
    27    24    25   ar
    28    25    26   ar
    29    26    27   ar
    30    27    28   ar
    31    20    21    1
#	Name:			CHEMBL219063
#	Creating user name:	trannguyen
#	Creation time:		Tue Feb  8 17:54:08 2022


#	Modifying user name:	trannguyen
#	Modification time:	Tue Feb  8 17:54:08 2022

@<TRIPOS>MOLECULE
CHEMBL219063
 39 42 0 0 0
SMALL
GASTEIGER

@<TRIPOS>ATOM
      1 C           1.4771   59.0573   75.7658 C.2     1  UNL1        0.2379
      2 O           2.1267   58.2232   75.1364 O.2     1  UNL1       -0.2736
      3 N           0.0979   58.9900   75.8842 N.am    1  UNL1       -0.2359
      4 H          -0.4644   59.8265   76.0171 H       1  UNL1        0.1727
      5 N          -0.5065   57.9010   75.2211 N.pl3   1  UNL1       -0.2635
      6 H          -0.8359   58.2038   74.2933 H       1  UNL1        0.1700
      7 C          -1.5700   57.2600   75.9214 C.ar    1  UNL1        0.0597
      8 C          -1.2698   56.0258   76.5402 C.ar    1  UNL1        0.0060
      9 C          -2.3299   55.2744   77.0398 C.ar    1  UNL1        0.0562
     10 N          -3.5942   55.7471   77.1017 N.ar    1  UNL1       -0.2499
     11 C          -3.8718   56.9430   76.5681 C.ar    1  UNL1        0.0821
     12 C          -5.1774   57.4017   76.6705 C.ar    1  UNL1        0.0191
     13 C          -5.5880   58.6009   76.0886 C.ar    1  UNL1        0.0015
     14 C          -4.6821   59.3460   75.3514 C.ar    1  UNL1        0.0001
     15 C          -3.3631   58.9071   75.2420 C.ar    1  UNL1        0.0028
     16 C          -2.9151   57.7275   75.8939 C.ar    1  UNL1        0.0319
     17 C          -2.1458   53.8636   77.5386 C.3     1  UNL1        0.0455
     18 C          -0.7772   53.2734   77.2107 C.3     1  UNL1        0.0066
     19 C           0.3065   54.2894   77.5347 C.3     1  UNL1        0.0052
     20 C           0.1532   55.5186   76.6338 C.3     1  UNL1        0.0289
     21 C           2.1155   60.2084   76.5164 C.3     1  UNL1        0.0883
     22 C           1.1241   61.3671   76.6559 C.3     1  UNL1        0.0309
     23 C           0.7327   61.6019   78.1125 C.3     1  UNL1        0.0902
     24 C          -1.6581   61.0073   78.3560 C.2     1  UNL1        0.2460
     25 O          -1.4430   59.8072   78.4157 O.2     1  UNL1       -0.2701
     26 N          -0.6720   61.9552   78.2069 N.am    1  UNL1       -0.3009
     27 H          -0.8984   62.9364   78.2056 H       1  UNL1        0.1497
     28 C          -5.4387   61.4077   78.7825 C.ar    1  UNL1        0.1756
     29 C          -4.1953   60.7679   78.6566 C.ar    1  UNL1        0.0448
     30 C          -3.0470   61.5406   78.5078 C.ar    1  UNL1        0.0596
     31 C          -3.1542   62.9322   78.5211 C.ar    1  UNL1        0.0448
     32 C          -4.3761   63.5909   78.6846 C.ar    1  UNL1        0.1756
     33 C          -5.5559   62.8214   78.7780 C.ar    1  UNL1        0.2061
     34 C          -6.1550   59.3938   79.7348 C.3     1  UNL1        0.2526
     35 O          -6.5167   60.6025   79.0684 O.3     1  UNL1       -0.4683
     36 O          -4.4249   64.9589   78.7304 O.3     1  UNL1       -0.4683
     37 C          -3.7151   65.7318   77.7595 C.3     1  UNL1        0.2526
     38 O          -6.8291   63.2989   78.9732 O.3     1  UNL1       -0.4654
     39 C          -7.5649   63.7642   77.8474 C.3     1  UNL1        0.2528
@<TRIPOS>BOND
     1    34    35    1
     2    35    28    1
     3    28    29   ar
     4    28    33   ar
     5    29    30   ar
     6    30    24    1
     7    30    31   ar
     8    24    25    2
     9    24    26   am
    10    26    23    1
    11    26    27    1
    12    23    22    1
    13    22    21    1
    14    21     1    1
    15     1     2    2
    16     1     3   am
    17     3     5    1
    18     3     4    1
    19     5     7    1
    20     5     6    1
    21     7     8   ar
    22     7    16   ar
    23     8     9   ar
    24     8    20    1
    25     9    10   ar
    26     9    17    1
    27    10    11   ar
    28    11    12   ar
    29    11    16   ar
    30    12    13   ar
    31    13    14   ar
    32    14    15   ar
    33    15    16   ar
    34    17    18    1
    35    18    19    1
    36    19    20    1
    37    31    32   ar
    38    32    36    1
    39    32    33   ar
    40    36    37    1
    41    33    38    1
    42    38    39    1
#	Name:			CHEMBL219262
#	Creating user name:	trannguyen
#	Creation time:		Tue Feb  8 17:54:08 2022


#	Modifying user name:	trannguyen
#	Modification time:	Tue Feb  8 17:54:08 2022

@<TRIPOS>MOLECULE
CHEMBL219262
 32 35 0 0 0
SMALL
GASTEIGER

@<TRIPOS>ATOM
      1 C           1.0548   58.4297   76.3916 C.2     1  UNL1        0.2615
      2 O           1.7434   57.4117   76.2426 O.2     1  UNL1       -0.2686
      3 N          -0.1942   58.6001   75.8393 N.am    1  UNL1       -0.2324
      4 H          -0.8145   59.3481   76.1377 H       1  UNL1        0.1730
      5 C           3.1644   60.6075   78.7122 C.ar    1  UNL1        0.1756
      6 C           2.7429   59.5058   77.9586 C.ar    1  UNL1        0.0448
      7 C           1.5549   59.5661   77.2209 C.ar    1  UNL1        0.0610
      8 C           0.7791   60.7225   77.2742 C.ar    1  UNL1        0.0448
      9 C           1.1424   61.8029   78.0907 C.ar    1  UNL1        0.1756
     10 C           2.3768   61.7794   78.7649 C.ar    1  UNL1        0.2061
     11 C           4.8766   59.4016   79.8859 C.3     1  UNL1        0.2526
     12 O           4.3482   60.6335   79.4096 O.3     1  UNL1       -0.4683
     13 O           0.3159   62.8898   78.2098 O.3     1  UNL1       -0.4683
     14 C          -0.8219   62.8845   77.3436 C.3     1  UNL1        0.2526
     15 O           2.9462   62.8149   79.4667 O.3     1  UNL1       -0.4654
     16 C           2.4425   63.1078   80.7598 C.3     1  UNL1        0.2528
     17 N          -0.8174   57.5451   75.1719 N.pl3   1  UNL1       -0.2632
     18 H          -1.0590   57.7900   74.2004 H       1  UNL1        0.1700
     19 C          -1.9302   56.9384   75.8474 C.ar    1  UNL1        0.0597
     20 C          -3.2247   57.5187   75.9305 C.ar    1  UNL1        0.0060
     21 C          -4.2010   56.8194   76.6485 C.ar    1  UNL1        0.0562
     22 N          -4.0036   55.5921   77.1740 N.ar    1  UNL1       -0.2499
     23 C          -2.8068   55.0158   77.0511 C.ar    1  UNL1        0.0821
     24 C          -2.6578   53.7513   77.6029 C.ar    1  UNL1        0.0191
     25 C          -1.4420   53.0718   77.5734 C.ar    1  UNL1        0.0015
     26 C          -0.3430   53.6734   76.9798 C.ar    1  UNL1        0.0001
     27 C          -0.4771   54.9401   76.4018 C.ar    1  UNL1        0.0028
     28 C          -1.7160   55.6368   76.4116 C.ar    1  UNL1        0.0319
     29 C          -5.5881   57.3703   76.8610 C.3     1  UNL1        0.0455
     30 C          -5.6434   58.8864   76.7485 C.3     1  UNL1        0.0066
     31 C          -5.0430   59.2946   75.4158 C.3     1  UNL1        0.0052
     32 C          -3.5806   58.8603   75.3326 C.3     1  UNL1        0.0289
@<TRIPOS>BOND
     1    11    12    1
     2    12     5    1
     3     5     6   ar
     4     5    10   ar
     5     6     7   ar
     6     7     1    1
     7     7     8   ar
     8     1     2    2
     9     1     3   am
    10     3    17    1
    11     3     4    1
    12    17    19    1
    13    17    18    1
    14    19    20   ar
    15    19    28   ar
    16    20    21   ar
    17    20    32    1
    18    21    22   ar
    19    21    29    1
    20    22    23   ar
    21    23    24   ar
    22    23    28   ar
    23    24    25   ar
    24    25    26   ar
    25    26    27   ar
    26    27    28   ar
    27    29    30    1
    28    30    31    1
    29    31    32    1
    30     8     9   ar
    31     9    13    1
    32     9    10   ar
    33    13    14    1
    34    10    15    1
    35    15    16    1
#	Name:			CHEMBL219264
#	Creating user name:	trannguyen
#	Creation time:		Tue Feb  8 17:54:08 2022


#	Modifying user name:	trannguyen
#	Modification time:	Tue Feb  8 17:54:08 2022

@<TRIPOS>MOLECULE
CHEMBL219264
 43 46 0 0 0
SMALL
GASTEIGER

@<TRIPOS>ATOM
      1 C           3.6451   63.3625   66.9822 C.3     1  UNL1        0.0097
      2 C           3.6258   61.9794   67.6321 C.3     1  UNL1        0.0023
      3 C           2.4124   61.7880   68.5492 C.3     1  UNL1        0.0213
      4 C           2.4670   60.4701   69.3293 C.3     1  UNL1        0.0894
      5 C           2.5463   59.6746   71.6888 C.2     1  UNL1        0.2228
      6 O           2.5682   58.4807   71.3930 O.2     1  UNL1       -0.2751
      7 N           2.5029   60.6975   70.7629 N.am    1  UNL1       -0.3043
      8 H           2.7576   61.6190   71.0949 H       1  UNL1        0.1494
      9 C           2.4782   60.1959   73.1186 C.3     1  UNL1        0.0897
     10 C           2.5231   59.0756   74.1567 C.3     1  UNL1        0.0361
     11 C           1.4348   60.8276   77.4081 C.ar    1  UNL1        0.1751
     12 C           2.1515   60.5049   76.2402 C.ar    1  UNL1        0.0360
     13 C           1.8151   59.3914   75.4615 C.ar    1  UNL1       -0.0155
     14 C           0.7254   58.6114   75.8687 C.ar    1  UNL1        0.0360
     15 C          -0.0536   58.9602   76.9862 C.ar    1  UNL1        0.1751
     16 C           0.3104   60.0648   77.7827 C.ar    1  UNL1        0.2060
     17 C           2.9153   61.7489   79.0351 C.3     1  UNL1        0.2526
     18 O           1.9107   61.9514   78.0449 O.3     1  UNL1       -0.4683
     19 O          -1.1745   58.2450   77.3291 O.3     1  UNL1       -0.4683
     20 C          -2.2828   58.3537   76.4410 C.3     1  UNL1        0.2526
     21 O          -0.4360   60.5425   78.8311 O.3     1  UNL1       -0.4654
     22 C          -0.1897   60.0100   80.1256 C.3     1  UNL1        0.2528
     23 C           3.6291   63.2765   65.4516 C.3     1  UNL1        0.0866
     24 C           3.2841   64.5871   64.7253 C.2     1  UNL1        0.2379
     25 O           3.7585   64.8727   63.6275 O.2     1  UNL1       -0.2736
     26 N           2.4497   65.4261   65.4410 N.am    1  UNL1       -0.2359
     27 H           1.8372   65.0631   66.1623 H       1  UNL1        0.1727
     28 N           2.0634   66.6767   64.9260 N.pl3   1  UNL1       -0.2635
     29 H           1.9168   66.6280   63.9089 H       1  UNL1        0.1700
     30 C           2.8861   67.8251   65.2480 C.ar    1  UNL1        0.0597
     31 C           3.7222   68.3315   64.2008 C.ar    1  UNL1        0.0060
     32 C           4.6361   69.3422   64.5122 C.ar    1  UNL1        0.0562
     33 N           4.6589   69.9578   65.7088 N.ar    1  UNL1       -0.2499
     34 C           3.8188   69.5647   66.6675 C.ar    1  UNL1        0.0821
     35 C           3.8961   70.2771   67.8569 C.ar    1  UNL1        0.0191
     36 C           3.1104   69.9722   68.9652 C.ar    1  UNL1        0.0015
     37 C           2.2321   68.9179   68.8902 C.ar    1  UNL1        0.0001
     38 C           2.1495   68.1852   67.7056 C.ar    1  UNL1        0.0028
     39 C           2.9131   68.4877   66.5343 C.ar    1  UNL1        0.0319
     40 C           5.6663   69.8507   63.5324 C.3     1  UNL1        0.0455
     41 C           5.8587   68.9339   62.3330 C.3     1  UNL1        0.0066
     42 C           4.4942   68.5994   61.7540 C.3     1  UNL1        0.0052
     43 C           3.6478   67.8166   62.7747 C.3     1  UNL1        0.0289
@<TRIPOS>BOND
     1    17    18    1
     2    18    11    1
     3    11    12   ar
     4    11    16   ar
     5    12    13   ar
     6    13    10    1
     7    13    14   ar
     8    10     9    1
     9     9     5    1
    10     5     6    2
    11     5     7   am
    12     7     4    1
    13     7     8    1
    14     4     3    1
    15     3     2    1
    16     2     1    1
    17     1    23    1
    18    23    24    1
    19    24    25    2
    20    24    26   am
    21    26    28    1
    22    26    27    1
    23    28    30    1
    24    28    29    1
    25    30    31   ar
    26    30    39   ar
    27    31    32   ar
    28    31    43    1
    29    32    33   ar
    30    32    40    1
    31    33    34   ar
    32    34    35   ar
    33    34    39   ar
    34    35    36   ar
    35    36    37   ar
    36    37    38   ar
    37    38    39   ar
    38    40    41    1
    39    41    42    1
    40    42    43    1
    41    14    15   ar
    42    15    19    1
    43    15    16   ar
    44    19    20    1
    45    16    21    1
    46    21    22    1
#	Name:			CHEMBL219316
#	Creating user name:	trannguyen
#	Creation time:		Tue Feb  8 17:54:08 2022


#	Modifying user name:	trannguyen
#	Modification time:	Tue Feb  8 17:54:08 2022

@<TRIPOS>MOLECULE
CHEMBL219316
 42 45 0 0 0
SMALL
GASTEIGER

@<TRIPOS>ATOM
      1 C           1.3680   61.0929   77.1576 C.3     1  UNL1        0.0114
      2 C           1.9386   61.5329   78.5133 C.3     1  UNL1        0.0217
      3 C           2.3339   60.3542   79.4001 C.3     1  UNL1        0.0894
      4 C           0.6851   58.5686   79.7378 C.2     1  UNL1        0.2228
      5 O           1.1488   57.8740   78.8349 O.2     1  UNL1       -0.2751
      6 N           1.1934   59.7967   80.0854 N.am    1  UNL1       -0.3043
      7 H           0.7140   60.3602   80.7784 H       1  UNL1        0.1494
      8 C          -0.5099   58.1682   80.5551 C.3     1  UNL1        0.0897
      9 C          -1.6854   57.8303   79.6423 C.3     1  UNL1        0.0361
     10 C          -4.5234   60.3742   79.6073 C.ar    1  UNL1        0.1751
     11 C          -3.7551   59.2474   79.9155 C.ar    1  UNL1        0.0360
     12 C          -2.5078   59.0475   79.3302 C.ar    1  UNL1       -0.0155
     13 C          -2.0097   59.9999   78.4492 C.ar    1  UNL1        0.0360
     14 C          -2.7041   61.1756   78.1752 C.ar    1  UNL1        0.1751
     15 C          -4.0135   61.3340   78.6888 C.ar    1  UNL1        0.2060
     16 C          -6.8239   59.7424   79.7645 C.3     1  UNL1        0.2526
     17 O          -5.7511   60.5861   80.2024 O.3     1  UNL1       -0.4683
     18 O          -2.1549   62.1574   77.3904 O.3     1  UNL1       -0.4683
     19 C          -1.4396   63.2202   78.0124 C.3     1  UNL1        0.2526
     20 O          -4.8513   62.3776   78.3599 O.3     1  UNL1       -0.4654
     21 C          -4.8301   63.5354   79.1996 C.3     1  UNL1        0.2528
     22 C           2.2316   60.0531   76.4492 C.3     1  UNL1        0.0866
     23 C           1.4789   59.3114   75.3297 C.2     1  UNL1        0.2379
     24 O           1.7964   59.3606   74.1692 O.2     1  UNL1       -0.2736
     25 N           0.3721   58.6355   75.8536 N.am    1  UNL1       -0.2359
     26 H           0.3372   58.3841   76.8216 H       1  UNL1        0.1727
     27 N          -0.5566   57.9980   75.0092 N.pl3   1  UNL1       -0.2635
     28 H          -1.0526   58.6730   74.4176 H       1  UNL1        0.1700
     29 C          -1.5339   57.2016   75.7245 C.ar    1  UNL1        0.0597
     30 C          -2.8578   57.7212   75.7991 C.ar    1  UNL1        0.0060
     31 C          -3.7796   57.0375   76.5947 C.ar    1  UNL1        0.0562
     32 N          -3.4854   55.8912   77.2416 N.ar    1  UNL1       -0.2499
     33 C          -2.2491   55.3963   77.1814 C.ar    1  UNL1        0.0821
     34 C          -2.0283   54.2357   77.9113 C.ar    1  UNL1        0.0191
     35 C          -0.7778   53.6291   77.9890 C.ar    1  UNL1        0.0015
     36 C           0.2779   54.1805   77.2921 C.ar    1  UNL1        0.0001
     37 C           0.0712   55.3420   76.5435 C.ar    1  UNL1        0.0028
     38 C          -1.1990   55.9985   76.4574 C.ar    1  UNL1        0.0319
     39 C          -5.2044   57.4945   76.7758 C.3     1  UNL1        0.0455
     40 C          -5.4364   58.9400   76.3637 C.3     1  UNL1        0.0066
     41 C          -4.8116   59.1743   74.9973 C.3     1  UNL1        0.0052
     42 C          -3.2876   58.9763   75.0622 C.3     1  UNL1        0.0289
@<TRIPOS>BOND
     1    16    17    1
     2    17    10    1
     3    10    11   ar
     4    10    15   ar
     5    11    12   ar
     6    12     9    1
     7    12    13   ar
     8     9     8    1
     9     8     4    1
    10     4     5    2
    11     4     6   am
    12     6     3    1
    13     6     7    1
    14     3     2    1
    15     2     1    1
    16     1    22    1
    17    22    23    1
    18    23    24    2
    19    23    25   am
    20    25    27    1
    21    25    26    1
    22    27    29    1
    23    27    28    1
    24    29    30   ar
    25    29    38   ar
    26    30    31   ar
    27    30    42    1
    28    31    32   ar
    29    31    39    1
    30    32    33   ar
    31    33    34   ar
    32    33    38   ar
    33    34    35   ar
    34    35    36   ar
    35    36    37   ar
    36    37    38   ar
    37    39    40    1
    38    40    41    1
    39    41    42    1
    40    13    14   ar
    41    14    18    1
    42    14    15   ar
    43    18    19    1
    44    15    20    1
    45    20    21    1
#	Name:			CHEMBL219550
#	Creating user name:	trannguyen
#	Creation time:		Tue Feb  8 17:54:08 2022


#	Modifying user name:	trannguyen
#	Modification time:	Tue Feb  8 17:54:08 2022

@<TRIPOS>MOLECULE
CHEMBL219550
 40 43 0 0 0
SMALL
GASTEIGER

@<TRIPOS>ATOM
      1 C          -9.2533   72.9127   72.0209 C.3     1  UNL1        0.0866
      2 C          -7.9158   73.3911   72.5651 C.2     1  UNL1        0.2379
      3 O          -6.8344   72.9903   72.1443 O.2     1  UNL1       -0.2736
      4 N          -8.0690   74.3662   73.5370 N.am    1  UNL1       -0.2359
      5 H          -8.9693   74.7977   73.7301 H       1  UNL1        0.1727
      6 N          -6.9598   75.0582   74.0447 N.pl3   1  UNL1       -0.2635
      7 H          -6.1342   74.4512   74.0988 H       1  UNL1        0.1700
      8 C          -7.2100   75.6846   75.3147 C.ar    1  UNL1        0.0597
      9 C          -7.4902   74.9460   76.4946 C.ar    1  UNL1        0.0060
     10 C          -7.7150   75.6723   77.6665 C.ar    1  UNL1        0.0562
     11 N          -7.5604   77.0110   77.7562 N.ar    1  UNL1       -0.2499
     12 C          -7.2381   77.7049   76.6631 C.ar    1  UNL1        0.0821
     13 C          -7.0770   79.0755   76.8154 C.ar    1  UNL1        0.0191
     14 C          -6.7845   79.9090   75.7383 C.ar    1  UNL1        0.0015
     15 C          -6.6651   79.3594   74.4706 C.ar    1  UNL1        0.0001
     16 C          -6.8064   77.9765   74.2989 C.ar    1  UNL1        0.0028
     17 C          -7.0718   77.1114   75.3962 C.ar    1  UNL1        0.0319
     18 C          -8.1226   75.0061   78.9551 C.3     1  UNL1        0.0455
     19 C          -8.6989   73.6124   78.7500 C.3     1  UNL1        0.0066
     20 C          -7.7294   72.8046   77.9074 C.3     1  UNL1        0.0052
     21 C          -7.6179   73.4365   76.5257 C.3     1  UNL1        0.0289
     22 C          -9.4343   73.1455   70.5191 C.3     1  UNL1        0.0114
     23 C         -10.5298   74.1538   70.1451 C.3     1  UNL1        0.0218
     24 C         -10.5456   75.4135   71.0063 C.3     1  UNL1        0.0897
     25 C          -8.6919   76.9867   70.6662 C.2     1  UNL1        0.2460
     26 O          -8.0254   76.5252   71.5739 O.2     1  UNL1       -0.2701
     27 N          -9.9627   76.5438   70.3299 N.am    1  UNL1       -0.3009
     28 H         -10.4138   76.8638   69.4874 H       1  UNL1        0.1497
     29 C          -8.4150   79.4854   67.8427 C.ar    1  UNL1        0.1756
     30 C          -8.8760   78.4590   68.6796 C.ar    1  UNL1        0.0448
     31 C          -8.1356   78.0617   69.7995 C.ar    1  UNL1        0.0596
     32 C          -6.9280   78.6913   70.0927 C.ar    1  UNL1        0.0448
     33 C          -6.4768   79.7435   69.2911 C.ar    1  UNL1        0.1756
     34 C          -7.1713   80.0938   68.1138 C.ar    1  UNL1        0.2061
     35 C          -9.0488   79.3190   65.5239 C.3     1  UNL1        0.2526
     36 O          -9.1349   79.9654   66.7842 O.3     1  UNL1       -0.4683
     37 O          -5.3290   80.3397   69.7570 O.3     1  UNL1       -0.4683
     38 C          -5.3348   80.7778   71.1175 C.3     1  UNL1        0.2526
     39 O          -6.5117   80.9936   67.3173 O.3     1  UNL1       -0.4654
     40 C          -5.5663   80.5664   66.3562 C.3     1  UNL1        0.2528
@<TRIPOS>BOND
     1    35    36    1
     2    36    29    1
     3    29    30   ar
     4    29    34   ar
     5    30    31   ar
     6    31    25    1
     7    31    32   ar
     8    25    26    2
     9    25    27   am
    10    27    24    1
    11    27    28    1
    12    24    23    1
    13    23    22    1
    14    22     1    1
    15     1     2    1
    16     2     3    2
    17     2     4   am
    18     4     6    1
    19     4     5    1
    20     6     8    1
    21     6     7    1
    22     8     9   ar
    23     8    17   ar
    24     9    10   ar
    25     9    21    1
    26    10    11   ar
    27    10    18    1
    28    11    12   ar
    29    12    13   ar
    30    12    17   ar
    31    13    14   ar
    32    14    15   ar
    33    15    16   ar
    34    16    17   ar
    35    18    19    1
    36    19    20    1
    37    20    21    1
    38    32    33   ar
    39    33    37    1
    40    33    34   ar
    41    37    38    1
    42    34    39    1
    43    39    40    1
#	Name:			CHEMBL219911
#	Creating user name:	trannguyen
#	Creation time:		Tue Feb  8 17:54:08 2022


#	Modifying user name:	trannguyen
#	Modification time:	Tue Feb  8 17:54:08 2022

@<TRIPOS>MOLECULE
CHEMBL219911
 34 37 0 0 0
SMALL
GASTEIGER

@<TRIPOS>ATOM
      1 C          -5.0639   59.3851   74.9678 C.2     1  UNL1        0.2382
      2 O          -5.1733   60.3171   74.2143 O.2     1  UNL1       -0.2736
      3 N          -6.1110   58.7930   75.6642 N.am    1  UNL1       -0.2359
      4 H          -5.9062   58.5828   76.6161 H       1  UNL1        0.1727
      5 N          -7.4186   59.2229   75.4123 N.pl3   1  UNL1       -0.2635
      6 H          -7.4124   59.9672   74.7168 H       1  UNL1        0.1700
      7 C          -8.1750   59.5439   76.5974 C.ar    1  UNL1        0.0597
      8 C          -8.2198   60.8567   77.1581 C.ar    1  UNL1        0.0060
      9 C          -8.9168   61.0096   78.3652 C.ar    1  UNL1        0.0562
     10 N          -9.6029   60.0104   78.9623 N.ar    1  UNL1       -0.2499
     11 C          -9.5594   58.7814   78.4473 C.ar    1  UNL1        0.0821
     12 C         -10.2897   57.8014   79.1077 C.ar    1  UNL1        0.0191
     13 C         -10.3000   56.4740   78.6862 C.ar    1  UNL1        0.0015
     14 C          -9.5336   56.1082   77.5937 C.ar    1  UNL1        0.0001
     15 C          -8.7978   57.0816   76.9108 C.ar    1  UNL1        0.0028
     16 C          -8.8204   58.4556   77.2935 C.ar    1  UNL1        0.0319
     17 C          -9.0106   62.3267   79.0971 C.3     1  UNL1        0.0455
     18 C          -7.9805   63.3578   78.6631 C.3     1  UNL1        0.0066
     19 C          -7.9587   63.4153   77.1545 C.3     1  UNL1        0.0052
     20 C          -7.4956   62.0706   76.5945 C.3     1  UNL1        0.0289
     21 C          -3.7548   58.7098   75.3656 C.3     1  UNL1        0.0912
     22 C          -4.0024   57.3032   75.8957 C.3     1  UNL1        0.0362
     23 C          -0.3128   56.3370   76.2254 C.ar    1  UNL1        0.1751
     24 C          -1.4910   57.0977   76.1569 C.ar    1  UNL1        0.0360
     25 C          -2.7347   56.4839   75.9916 C.ar    1  UNL1       -0.0155
     26 C          -2.7774   55.0890   75.8894 C.ar    1  UNL1        0.0360
     27 C          -1.6322   54.3020   76.0958 C.ar    1  UNL1        0.1751
     28 C          -0.3811   54.9303   76.2554 C.ar    1  UNL1        0.2060
     29 C           1.0814   57.7755   77.5335 C.3     1  UNL1        0.2526
     30 O           0.8331   57.0915   76.3058 O.3     1  UNL1       -0.4683
     31 O          -1.6975   52.9333   76.1568 O.3     1  UNL1       -0.4683
     32 C          -1.8235   52.2318   74.9197 C.3     1  UNL1        0.2526
     33 O           0.7657   54.2841   76.6453 O.3     1  UNL1       -0.4654
     34 C           0.9882   54.0628   78.0315 C.3     1  UNL1        0.2528
@<TRIPOS>BOND
     1    29    30    1
     2    30    23    1
     3    23    24   ar
     4    23    28   ar
     5    24    25   ar
     6    25    22    1
     7    25    26   ar
     8    22    21    1
     9    21     1    1
    10     1     2    2
    11     1     3   am
    12     3     5    1
    13     3     4    1
    14     5     7    1
    15     5     6    1
    16     7     8   ar
    17     7    16   ar
    18     8     9   ar
    19     8    20    1
    20     9    10   ar
    21     9    17    1
    22    10    11   ar
    23    11    12   ar
    24    11    16   ar
    25    12    13   ar
    26    13    14   ar
    27    14    15   ar
    28    15    16   ar
    29    17    18    1
    30    18    19    1
    31    19    20    1
    32    26    27   ar
    33    27    31    1
    34    27    28   ar
    35    31    32    1
    36    28    33    1
    37    33    34    1
#	Name:			CHEMBL220141
#	Creating user name:	trannguyen
#	Creation time:		Tue Feb  8 17:54:08 2022


#	Modifying user name:	trannguyen
#	Modification time:	Tue Feb  8 17:54:08 2022

@<TRIPOS>MOLECULE
CHEMBL220141
 40 43 0 0 0
SMALL
GASTEIGER

@<TRIPOS>ATOM
      1 C           1.8199   59.7429   76.9850 C.3     1  UNL1        0.1077
      2 C           1.2136   58.5451   76.2672 C.2     1  UNL1        0.2396
      3 O           1.8264   57.5522   75.9435 O.2     1  UNL1       -0.2735
      4 N          -0.1166   58.7741   75.9541 N.am    1  UNL1       -0.2359
      5 H          -0.6254   59.3782   76.5695 H       1  UNL1        0.1727
      6 N          -0.8270   57.8245   75.2058 N.pl3   1  UNL1       -0.2635
      7 H          -0.1795   57.1222   74.8359 H       1  UNL1        0.1700
      8 C          -1.9668   57.2206   75.8393 C.ar    1  UNL1        0.0597
      9 C          -3.2552   57.8213   75.8482 C.ar    1  UNL1        0.0060
     10 C          -4.2478   57.1990   76.6088 C.ar    1  UNL1        0.0562
     11 N          -4.0975   55.9770   77.1635 N.ar    1  UNL1       -0.2499
     12 C          -2.9524   55.3144   76.9861 C.ar    1  UNL1        0.0821
     13 C          -2.9075   54.0057   77.4511 C.ar    1  UNL1        0.0191
     14 C          -1.7771   53.2041   77.3073 C.ar    1  UNL1        0.0015
     15 C          -0.6449   53.7351   76.7137 C.ar    1  UNL1        0.0001
     16 C          -0.6636   55.0562   76.2514 C.ar    1  UNL1        0.0028
     17 C          -1.8277   55.8777   76.3502 C.ar    1  UNL1        0.0319
     18 C          -5.5986   57.8285   76.8476 C.3     1  UNL1        0.0455
     19 C          -5.7438   59.2482   76.3124 C.3     1  UNL1        0.0066
     20 C          -5.1091   59.3406   74.9363 C.3     1  UNL1        0.0052
     21 C          -3.6158   59.0813   75.0874 C.3     1  UNL1        0.0289
     22 C           1.4885   61.0448   76.2733 C.3     1  UNL1        0.0990
     23 C          -0.5871   62.1932   77.0647 C.2     1  UNL1        0.2228
     24 O          -1.3173   61.6058   76.2749 O.2     1  UNL1       -0.2751
     25 N           0.7774   61.9997   77.1226 N.am    1  UNL1       -0.3038
     26 H           1.3158   62.4984   77.8191 H       1  UNL1        0.1494
     27 C          -1.1360   63.1801   78.0820 C.3     1  UNL1        0.0897
     28 C          -2.1241   62.4799   79.0088 C.3     1  UNL1        0.0361
     29 C          -5.2328   64.5248   78.1632 C.ar    1  UNL1        0.1751
     30 C          -3.8959   64.1221   78.3162 C.ar    1  UNL1        0.0360
     31 C          -3.5625   62.8497   78.7543 C.ar    1  UNL1       -0.0155
     32 C          -4.5915   61.9404   78.9629 C.ar    1  UNL1        0.0360
     33 C          -5.9428   62.2752   78.7494 C.ar    1  UNL1        0.1751
     34 C          -6.2888   63.6000   78.3982 C.ar    1  UNL1        0.2060
     35 C          -4.3931   66.6790   77.6141 C.3     1  UNL1        0.2526
     36 O          -5.5278   65.8118   77.7484 O.3     1  UNL1       -0.4683
     37 O          -6.9093   61.3042   78.8702 O.3     1  UNL1       -0.4683
     38 C          -6.6780   60.3192   79.8806 C.3     1  UNL1        0.2526
     39 O          -7.5585   64.0672   78.1542 O.3     1  UNL1       -0.4654
     40 C          -8.4412   64.3981   79.2245 C.3     1  UNL1        0.2528
@<TRIPOS>BOND
     1    35    36    1
     2    36    29    1
     3    29    30   ar
     4    29    34   ar
     5    30    31   ar
     6    31    28    1
     7    31    32   ar
     8    28    27    1
     9    27    23    1
    10    23    24    2
    11    23    25   am
    12    25    22    1
    13    25    26    1
    14    22     1    1
    15     1     2    1
    16     2     3    2
    17     2     4   am
    18     4     6    1
    19     4     5    1
    20     6     8    1
    21     6     7    1
    22     8     9   ar
    23     8    17   ar
    24     9    10   ar
    25     9    21    1
    26    10    11   ar
    27    10    18    1
    28    11    12   ar
    29    12    13   ar
    30    12    17   ar
    31    13    14   ar
    32    14    15   ar
    33    15    16   ar
    34    16    17   ar
    35    18    19    1
    36    19    20    1
    37    20    21    1
    38    32    33   ar
    39    33    37    1
    40    33    34   ar
    41    37    38    1
    42    34    39    1
    43    39    40    1
#	Name:			CHEMBL235548
#	Creating user name:	trannguyen
#	Creation time:		Tue Feb  8 17:54:08 2022


#	Modifying user name:	trannguyen
#	Modification time:	Tue Feb  8 17:54:08 2022

@<TRIPOS>MOLECULE
CHEMBL235548
 38 42 0 0 0
SMALL
GASTEIGER

@<TRIPOS>ATOM
      1 C           1.7407   59.3319   75.9568 C.2     1  UNL1        0.2909
      2 N           1.5865   59.8656   77.1209 N.2     1  UNL1       -0.0740
      3 C           0.2477   59.7018   77.7279 C.3     1  UNL1        0.2227
      4 C          -0.6297   60.8573   77.1873 C.3     1  UNL1        0.0787
      5 C          -1.7481   60.4515   76.2847 C.2     1  UNL1       -0.0301
      6 C          -2.3888   59.2839   76.4482 C.2     1  UNL1       -0.0480
      7 C          -3.6847   59.0056   75.7238 C.3     1  UNL1        0.0290
      8 C          -4.8290   59.5562   76.5821 C.3     1  UNL1        0.0616
      9 C          -6.1263   59.7575   75.8450 C.2     1  UNL1        0.1506
     10 O          -6.2962   59.4230   74.6814 O.2     1  UNL1       -0.2961
     11 C          -7.2015   60.4983   76.6273 C.3     1  UNL1        0.0646
     12 C          -7.2278   60.1582   78.1736 C.3     1  UNL1        0.0105
     13 C          -6.5681   61.3367   78.9068 C.3     1  UNL1        0.0006
     14 C          -8.7354   59.8467   78.5596 C.3     1  UNL1        0.0420
     15 C          -8.8898   58.3682   78.0436 C.3     1  UNL1        0.1118
     16 O          -9.5394   57.4854   78.9334 O.3     1  UNL1       -0.3844
     17 C          -7.4771   57.8145   77.7384 C.3     1  UNL1        0.0293
     18 C          -6.5016   58.7905   78.4552 C.3     1  UNL1        0.0033
     19 C          -6.4953   58.3050   79.9344 C.3     1  UNL1        0.0001
     20 C          -5.0242   58.7467   77.8946 C.3     1  UNL1        0.0073
     21 C          -3.9544   59.2680   78.9069 C.3     1  UNL1        0.0008
     22 C          -2.5896   58.5746   78.8728 C.3     1  UNL1        0.0043
     23 C          -1.9263   58.3042   77.5053 C.3     1  UNL1        0.0259
     24 C          -0.3474   58.2620   77.5867 C.3     1  UNL1        0.0917
     25 C           0.1155   57.4200   78.8064 C.3     1  UNL1        0.0088
     26 C           0.1972   57.5427   76.3231 C.3     1  UNL1        0.2031
     27 N           0.8334   58.4646   75.4075 N.pl3   1  UNL1       -0.2226
     28 H          -9.6778   56.6435   78.4653 H       1  UNL1        0.2103
     29 H           1.1025   58.0404   74.5268 H       1  UNL1        0.2919
     30 C           2.9586   59.7207   75.1161 C.3     1  UNL1        0.1051
     31 C           3.0113   58.7839   73.9069 C.3     1  UNL1        0.0126
     32 C           3.3684   61.4488   73.2791 C.3     1  UNL1        0.0006
     33 C           2.9114   61.2010   74.7087 C.3     1  UNL1        0.0120
     34 C          -9.2166   60.2001   80.0271 C.3     1  UNL1        0.0599
     35 C          -9.9520   59.0458   80.7368 C.3     1  UNL1        0.0174
     36 N         -10.0307   61.4519   80.0787 N.3     1  UNL1       -0.2715
     37 C          -9.3967   62.5844   80.7509 C.3     1  UNL1        0.0896
     38 C         -10.5520   61.8671   78.7743 C.3     1  UNL1        0.0896
@<TRIPOS>BOND
     1    32    33    1
     2    30    31    1
     3    30     1    1
     4    30    33    1
     5     1     2    2
     6     1    27    1
     7     2     3    1
     8     3     4    1
     9     3    24    1
    10     4     5    1
    11     5     6    2
    12     6     7    1
    13     6    23    1
    14     7     8    1
    15     8     9    1
    16     8    20    1
    17     9    11    1
    18     9    10    2
    19    11    12    1
    20    12    14    1
    21    12    18    1
    22    12    13    1
    23    14    15    1
    24    14    34    1
    25    34    36    1
    26    34    35    1
    27    36    37    1
    28    36    38    1
    29    15    17    1
    30    15    16    1
    31    16    28    1
    32    17    18    1
    33    18    20    1
    34    18    19    1
    35    20    21    1
    36    21    22    1
    37    22    23    1
    38    23    24    1
    39    24    26    1
    40    24    25    1
    41    26    27    1
    42    27    29    1
#	Name:			CHEMBL235565
#	Creating user name:	trannguyen
#	Creation time:		Tue Feb  8 17:54:08 2022


#	Modifying user name:	trannguyen
#	Modification time:	Tue Feb  8 17:54:08 2022

@<TRIPOS>MOLECULE
CHEMBL235565
 30 32 0 0 0
SMALL
GASTEIGER

@<TRIPOS>ATOM
      1 C           2.5013   69.3726   66.6549 C.3     1  UNL1        0.1760
      2 N           3.4202   69.0276   65.5627 N.am    1  UNL1       -0.2935
      3 C           3.0159   69.0087   64.2473 C.2     1  UNL1        0.2674
      4 O           1.8771   69.3089   63.8965 O.2     1  UNL1       -0.2711
      5 H           4.3481   68.6868   65.8013 H       1  UNL1        0.1500
      6 C           4.1100   68.6491   63.2306 C.3     1  UNL1        0.2893
      7 O           3.9625   67.3997   62.5659 O.3     1  UNL1       -0.4656
      8 C           3.8305   66.2977   63.3658 C.ar    1  UNL1        0.1393
      9 C           2.6497   65.8903   63.9889 C.ar    1  UNL1        0.0370
     10 C           2.6596   64.7915   64.8502 C.ar    1  UNL1        0.0064
     11 C           3.8488   64.0953   65.0781 C.ar    1  UNL1        0.0424
     12 C           5.0246   64.4733   64.4263 C.ar    1  UNL1        0.0064
     13 C           5.0076   65.5707   63.5650 C.ar    1  UNL1        0.0370
     14 C           3.8723   62.9618   66.0221 C.2     1  UNL1        0.2342
     15 O           3.5850   63.0940   67.2050 O.2     1  UNL1       -0.2831
     16 C           1.8918   68.0936   67.2379 C.2     1  UNL1        0.3355
     17 O           1.6368   67.0897   66.5891 O.2     1  UNL1       -0.2483
     18 C           1.6806   67.0364   69.3485 C.3     1  UNL1        0.2557
     19 O           1.7236   68.2391   68.5846 O.3     1  UNL1       -0.4433
     20 C           3.2283   70.1473   67.7673 C.3     1  UNL1        0.0590
     21 C           4.7094   70.2828   67.5569 C.ar    1  UNL1       -0.0016
     22 C           5.3456   70.3277   66.3307 C.ar    1  UNL1        0.0681
     23 N           6.6901   70.4492   66.5440 N.ar    1  UNL1       -0.3523
     24 H           7.3936   70.4908   65.8202 H       1  UNL1        0.1660
     25 C           6.9511   70.5480   67.8894 C.ar    1  UNL1        0.0563
     26 C           8.1692   70.7388   68.5536 C.ar    1  UNL1        0.0170
     27 C           8.1408   70.8346   69.9463 C.ar    1  UNL1        0.0015
     28 C           6.9439   70.7058   70.6459 C.ar    1  UNL1        0.0001
     29 C           5.7366   70.4881   69.9669 C.ar    1  UNL1        0.0012
     30 C           5.7306   70.4276   68.5566 C.ar    1  UNL1        0.0131
@<TRIPOS>BOND
     1    18    19    1
     2    19    16    1
     3    16    17    2
     4    16     1    1
     5     1    20    1
     6     1     2    1
     7    20    21    1
     8    21    22   ar
     9    21    30   ar
    10    22    23   ar
    11    23    24    1
    12    23    25   ar
    13    25    26   ar
    14    25    30   ar
    15    26    27   ar
    16    27    28   ar
    17    28    29   ar
    18    29    30   ar
    19     2     3   am
    20     2     5    1
    21     3     4    2
    22     3     6    1
    23     6     7    1
    24     7     8    1
    25     8     9   ar
    26     8    13   ar
    27     9    10   ar
    28    10    11   ar
    29    11    14    1
    30    11    12   ar
    31    14    15    2
    32    12    13   ar
#	Name:			CHEMBL237870
#	Creating user name:	trannguyen
#	Creation time:		Tue Feb  8 17:54:08 2022


#	Modifying user name:	trannguyen
#	Modification time:	Tue Feb  8 17:54:08 2022

@<TRIPOS>MOLECULE
CHEMBL237870
 36 40 0 0 0
SMALL
GASTEIGER

@<TRIPOS>ATOM
      1 C           2.3535   61.7515   78.8130 C.3     1  UNL1        0.0417
      2 C           2.6172   60.6550   77.7636 C.3     1  UNL1        0.1117
      3 O           2.5942   61.2115   76.4482 O.3     1  UNL1       -0.3844
      4 C           1.5421   59.5768   77.8972 C.3     1  UNL1        0.0293
      5 C           0.6062   59.9428   79.0980 C.3     1  UNL1        0.0033
      6 C           1.0215   59.0331   80.2785 C.3     1  UNL1        0.0001
      7 C          -0.8870   59.5668   78.7046 C.3     1  UNL1        0.0073
      8 C          -1.8557   59.3192   79.8768 C.3     1  UNL1        0.0008
      9 C          -3.3563   59.4094   79.5568 C.3     1  UNL1        0.0042
     10 C          -3.9066   58.6307   78.3326 C.3     1  UNL1        0.0233
     11 C          -3.2124   58.6982   76.9605 C.2     1  UNL1       -0.0481
     12 C          -3.7145   57.8905   76.0047 C.2     1  UNL1       -0.0326
     13 C          -4.9433   57.0726   76.2570 C.3     1  UNL1        0.0499
     14 C          -6.0104   57.8116   77.1103 C.3     1  UNL1        0.1140
     15 N          -6.8036   56.7675   77.7767 N.2     1  UNL1       -0.2432
     16 C          -6.8609   56.6894   79.0534 C.2     1  UNL1        0.1951
     17 O          -6.3452   57.5999   79.9084 O.2     1  UNL1       -0.4635
     18 C          -6.2974   58.8985   79.3373 C.3     1  UNL1        0.2087
     19 C          -5.4420   58.9062   78.0704 C.3     1  UNL1        0.0649
     20 C          -5.6343   60.3106   77.4288 C.3     1  UNL1        0.0060
     21 C          -2.1518   59.6986   76.5445 C.3     1  UNL1        0.0290
     22 C          -1.5486   60.5047   77.6779 C.3     1  UNL1        0.0616
     23 C          -0.5824   61.5774   77.2636 C.2     1  UNL1        0.1506
     24 O          -0.1951   61.7644   76.1117 O.2     1  UNL1       -0.2961
     25 C          -0.0632   62.3741   78.4256 C.3     1  UNL1        0.0646
     26 C           0.8759   61.4972   79.3184 C.3     1  UNL1        0.0105
     27 C           0.6067   61.9635   80.7596 C.3     1  UNL1        0.0006
     28 H           1.6755   61.4445   76.1978 H       1  UNL1        0.2103
     29 C          -7.5827   55.5778   79.7792 C.3     1  UNL1        0.0758
     30 C          -8.9726   56.0605   80.1835 C.3     1  UNL1        0.0097
     31 C          -7.6644   54.3196   78.9205 C.3     1  UNL1        0.0097
     32 C           3.5596   61.9377   79.7974 C.3     1  UNL1        0.0564
     33 C           4.0721   63.3680   79.9653 C.3     1  UNL1        0.0172
     34 C           5.8670   61.1825   80.2142 C.3     1  UNL1        0.0858
     35 N           4.6438   61.0011   79.4446 N.3     1  UNL1       -0.2973
     36 H           4.3153   60.0452   79.5861 H       1  UNL1        0.1233
@<TRIPOS>BOND
     1    34    35    1
     2    35    32    1
     3    35    36    1
     4    32    33    1
     5    32     1    1
     6     1     2    1
     7     1    26    1
     8     2     4    1
     9     2     3    1
    10     3    28    1
    11     4     5    1
    12     5     6    1
    13     5     7    1
    14     5    26    1
    15     7     8    1
    16     7    22    1
    17     8     9    1
    18     9    10    1
    19    10    11    1
    20    10    19    1
    21    11    12    2
    22    11    21    1
    23    12    13    1
    24    13    14    1
    25    14    15    1
    26    14    19    1
    27    15    16    2
    28    16    29    1
    29    16    17    1
    30    29    30    1
    31    29    31    1
    32    17    18    1
    33    18    19    1
    34    19    20    1
    35    21    22    1
    36    22    23    1
    37    23    24    2
    38    23    25    1
    39    25    26    1
    40    26    27    1
#	Name:			CHEMBL238062
#	Creating user name:	trannguyen
#	Creation time:		Tue Feb  8 17:54:08 2022


#	Modifying user name:	trannguyen
#	Modification time:	Tue Feb  8 17:54:08 2022

@<TRIPOS>MOLECULE
CHEMBL238062
 37 42 0 0 0
SMALL
GASTEIGER

@<TRIPOS>ATOM
      1 C          -8.3418   61.8675   78.0236 C.2     1  UNL1        0.2909
      2 N          -7.5944   61.4194   78.9718 N.2     1  UNL1       -0.0744
      3 C          -6.3684   60.7098   78.5871 C.3     1  UNL1        0.2182
      4 C          -5.9121   59.8862   79.7816 C.3     1  UNL1        0.0534
      5 C          -5.0272   58.6999   79.4394 C.3     1  UNL1        0.0049
      6 C          -4.2784   58.7929   78.1199 C.3     1  UNL1        0.0070
      7 C          -2.8260   59.2247   78.1581 C.3     1  UNL1        0.0073
      8 C          -3.1240   57.7685   77.8708 C.3     1  UNL1        0.0515
      9 C          -2.6509   56.8182   78.9487 C.2     1  UNL1        0.1498
     10 O          -3.2820   56.6079   79.9588 O.2     1  UNL1       -0.2961
     11 C          -1.2731   56.2723   78.7435 C.3     1  UNL1        0.0646
     12 C          -1.0069   55.7054   77.3395 C.3     1  UNL1        0.0105
     13 C           0.5531   55.5504   77.2718 C.3     1  UNL1        0.0006
     14 C          -1.6003   54.2706   76.9961 C.3     1  UNL1        0.0420
     15 C          -2.0611   54.3726   75.5146 C.3     1  UNL1        0.1118
     16 O          -1.5542   53.2789   74.7599 O.3     1  UNL1       -0.3844
     17 C          -1.5057   55.6890   74.9739 C.3     1  UNL1        0.0293
     18 C          -1.5252   56.6609   76.1759 C.3     1  UNL1        0.0032
     19 C          -0.5833   57.8478   75.8842 C.3     1  UNL1        0.0001
     20 C          -2.9842   57.1846   76.4544 C.3     1  UNL1        0.0066
     21 C          -3.6080   58.0674   75.3582 C.3     1  UNL1        0.0004
     22 C          -5.0540   58.4080   75.7249 C.3     1  UNL1        0.0003
     23 C          -5.0797   59.3622   76.9252 C.3     1  UNL1        0.0083
     24 C          -6.5079   59.8899   77.2911 C.3     1  UNL1        0.0879
     25 C          -7.5510   58.7518   77.3984 C.3     1  UNL1        0.0085
     26 C          -6.9797   60.8992   76.2147 C.3     1  UNL1        0.2027
     27 N          -8.1229   61.6431   76.6896 N.pl3   1  UNL1       -0.2226
     28 H          -1.7651   53.4403   73.8239 H       1  UNL1        0.2103
     29 H          -8.6582   62.1654   76.0069 H       1  UNL1        0.2919
     30 C          -9.9279   62.3986   79.8715 C.3     1  UNL1        0.0126
     31 C          -9.5940   62.6598   78.4058 C.3     1  UNL1        0.1052
     32 C          -9.4230   64.1543   78.1413 C.3     1  UNL1        0.0126
     33 C          -2.6354   53.4878   77.9005 C.3     1  UNL1        0.0599
     34 C          -2.1851   52.0857   78.3596 C.3     1  UNL1        0.0174
     35 N          -4.0327   53.4156   77.3796 N.3     1  UNL1       -0.2715
     36 C          -5.0293   53.9725   78.2977 C.3     1  UNL1        0.0896
     37 C          -4.4380   52.0351   77.0606 C.3     1  UNL1        0.0896
@<TRIPOS>BOND
     1    30    31    1
     2    31    32    1
     3    31     1    1
     4     1     2    2
     5     1    27    1
     6     2     3    1
     7     3     4    1
     8     3    24    1
     9     4     5    1
    10     6     5    1
    11     6     7    1
    12     6     8    1
    13     6    23    1
    14     8     7    1
    15     8     9    1
    16     8    20    1
    17     9    10    2
    18     9    11    1
    19    11    12    1
    20    12    13    1
    21    12    14    1
    22    12    18    1
    23    14    15    1
    24    14    33    1
    25    33    34    1
    26    33    35    1
    27    35    36    1
    28    35    37    1
    29    15    16    1
    30    15    17    1
    31    16    28    1
    32    17    18    1
    33    18    19    1
    34    18    20    1
    35    20    21    1
    36    21    22    1
    37    22    23    1
    38    23    24    1
    39    24    25    1
    40    24    26    1
    41    26    27    1
    42    27    29    1
#	Name:			CHEMBL238063
#	Creating user name:	trannguyen
#	Creation time:		Tue Feb  8 17:54:08 2022


#	Modifying user name:	trannguyen
#	Modification time:	Tue Feb  8 17:54:08 2022

@<TRIPOS>MOLECULE
CHEMBL238063
 38 43 0 0 0
SMALL
GASTEIGER

@<TRIPOS>ATOM
      1 C          -8.2161   62.0680   78.7247 C.2     1  UNL1        0.2909
      2 N          -7.8898   61.6354   77.5522 N.2     1  UNL1       -0.0744
      3 C          -7.0253   60.4465   77.5226 C.3     1  UNL1        0.2182
      4 C          -6.4375   60.2682   76.1220 C.3     1  UNL1        0.0534
      5 C          -5.6262   58.9727   76.0331 C.3     1  UNL1        0.0049
      6 C          -4.5670   58.8883   77.1316 C.3     1  UNL1        0.0070
      7 C          -3.2168   59.4432   76.7731 C.3     1  UNL1        0.0073
      8 C          -3.3313   57.9394   76.9992 C.3     1  UNL1        0.0515
      9 C          -3.1966   57.0586   75.7946 C.2     1  UNL1        0.1498
     10 O          -4.1790   56.7059   75.1346 O.2     1  UNL1       -0.2961
     11 C          -1.8076   56.5825   75.4684 C.3     1  UNL1        0.0646
     12 C          -0.9793   56.1547   76.6993 C.3     1  UNL1        0.0105
     13 C          -0.4223   54.7377   76.3024 C.3     1  UNL1        0.0006
     14 C           0.3067   57.0137   77.1340 C.3     1  UNL1        0.0420
     15 C           0.5110   56.5657   78.6160 C.3     1  UNL1        0.1118
     16 O           1.5957   55.6375   78.6825 O.3     1  UNL1       -0.3844
     17 C          -0.7665   55.8531   79.0940 C.3     1  UNL1        0.0293
     18 C          -1.8511   56.0743   78.0161 C.3     1  UNL1        0.0032
     19 C          -2.8332   54.8760   78.0576 C.3     1  UNL1        0.0001
     20 C          -2.6198   57.4275   78.2687 C.3     1  UNL1        0.0066
     21 C          -3.5762   57.4144   79.4730 C.3     1  UNL1        0.0004
     22 C          -4.2009   58.7964   79.6677 C.3     1  UNL1        0.0003
     23 C          -5.1817   59.0831   78.5251 C.3     1  UNL1        0.0083
     24 C          -5.9414   60.4483   78.6279 C.3     1  UNL1        0.0879
     25 C          -4.9765   61.6516   78.5097 C.3     1  UNL1        0.0085
     26 C          -6.7088   60.5446   79.9611 C.3     1  UNL1        0.2027
     27 N          -7.6950   61.5997   79.9053 N.pl3   1  UNL1       -0.2226
     28 H           1.6875   55.3586   79.6095 H       1  UNL1        0.2103
     29 H          -8.1526   61.8427   80.7750 H       1  UNL1        0.2919
     30 C          -9.2869   63.1659   78.7831 C.3     1  UNL1        0.1051
     31 C          -9.5362   63.5380   80.2477 C.3     1  UNL1        0.0126
     32 C          -7.7044   65.1534   78.4768 C.3     1  UNL1        0.0006
     33 C          -8.9345   64.4170   77.9680 C.3     1  UNL1        0.0120
     34 C           0.4421   58.6006   77.0177 C.3     1  UNL1        0.0599
     35 C           1.3684   59.0517   75.8842 C.3     1  UNL1        0.0174
     36 N           0.8344   59.2504   78.3154 N.3     1  UNL1       -0.2715
     37 C           2.1579   59.8798   78.3153 C.3     1  UNL1        0.0896
     38 C          -0.1541   60.2192   78.8159 C.3     1  UNL1        0.0896
@<TRIPOS>BOND
     1    32    33    1
     2    30    31    1
     3    30     1    1
     4    30    33    1
     5     1     2    2
     6     1    27    1
     7     2     3    1
     8     3     4    1
     9     3    24    1
    10     4     5    1
    11     6     5    1
    12     6     7    1
    13     6     8    1
    14     6    23    1
    15     8     7    1
    16     8     9    1
    17     8    20    1
    18     9    10    2
    19     9    11    1
    20    11    12    1
    21    12    13    1
    22    12    14    1
    23    12    18    1
    24    14    15    1
    25    14    34    1
    26    34    36    1
    27    34    35    1
    28    36    37    1
    29    36    38    1
    30    15    16    1
    31    15    17    1
    32    16    28    1
    33    17    18    1
    34    18    19    1
    35    18    20    1
    36    20    21    1
    37    21    22    1
    38    22    23    1
    39    23    24    1
    40    24    25    1
    41    24    26    1
    42    26    27    1
    43    27    29    1
#	Name:			CHEMBL2393106
#	Creating user name:	trannguyen
#	Creation time:		Tue Feb  8 17:54:08 2022


#	Modifying user name:	trannguyen
#	Modification time:	Tue Feb  8 17:54:08 2022

@<TRIPOS>MOLECULE
CHEMBL2393106
 48 52 0 0 0
SMALL
GASTEIGER

@<TRIPOS>ATOM
      1 C          -0.5575   62.6985   76.3047 C.2     1  UNL1        0.2225
      2 O          -1.1805   63.0150   75.2938 O.2     1  UNL1       -0.2751
      3 N           0.2273   61.5903   76.2596 N.am    1  UNL1       -0.3043
      4 H           0.2222   61.2030   75.3227 H       1  UNL1        0.1494
      5 C          -0.7119   63.4707   77.5923 C.3     1  UNL1        0.0868
      6 C          -2.1579   63.4855   78.0826 C.3     1  UNL1        0.0308
      7 C          -2.6423   62.1253   78.6046 C.3     1  UNL1        0.0902
      8 C          -5.0500   61.6031   79.0145 C.2     1  UNL1        0.2471
      9 O          -4.9129   61.5901   80.2101 O.2     1  UNL1       -0.2701
     10 N          -3.9912   61.8570   78.1355 N.am    1  UNL1       -0.3008
     11 H          -4.1733   61.9583   77.1558 H       1  UNL1        0.1497
     12 C          -6.9564   59.9838   78.3842 C.ar    1  UNL1        0.0527
     13 C          -8.0511   59.7603   77.5018 C.ar    1  UNL1        0.0148
     14 C          -8.5593   60.7541   76.6541 C.ar    1  UNL1        0.0013
     15 C          -7.9958   62.0165   76.6601 C.ar    1  UNL1        0.0002
     16 C          -6.8995   62.2592   77.4816 C.ar    1  UNL1        0.0058
     17 C          -6.3670   61.2693   78.3481 C.ar    1  UNL1        0.0667
     18 N          -6.5799   58.8850   79.2023 N.pl3   1  UNL1       -0.3127
     19 H          -6.9429   58.9580   80.1478 H       1  UNL1        0.1522
     20 C          -5.1805   54.1284   78.5069 C.3     1  UNL1        0.0307
     21 C          -4.8431   55.5715   78.7880 C.ar    1  UNL1       -0.0246
     22 C          -3.5414   55.9069   79.1650 C.ar    1  UNL1       -0.0045
     23 C          -3.2375   57.2170   79.5274 C.ar    1  UNL1        0.0009
     24 C          -4.2394   58.1960   79.5683 C.ar    1  UNL1        0.0143
     25 C          -5.5446   57.9128   79.1550 C.ar    1  UNL1        0.0440
     26 C          -5.8095   56.6035   78.6576 C.ar    1  UNL1       -0.0124
     27 C          -7.0929   56.2790   77.9325 C.3     1  UNL1        0.0320
     28 C           1.3040   61.2108   77.1527 C.3     1  UNL1        0.0894
     29 C           0.8846   60.0669   78.0730 C.3     1  UNL1        0.0230
     30 C           1.8198   58.8477   77.9785 C.3     1  UNL1        0.0229
     31 C           1.0623   57.5251   78.1118 C.3     1  UNL1        0.0871
     32 N           0.7871   56.9223   76.7957 N.pl3   1  UNL1       -0.3328
     33 H           1.0352   57.5375   76.0254 H       1  UNL1        0.1468
     34 C          -0.4359   56.2870   76.4637 C.ar    1  UNL1        0.0431
     35 C          -0.6443   54.8890   76.5326 C.ar    1  UNL1        0.0045
     36 C          -1.8959   54.3890   76.1511 C.ar    1  UNL1        0.0561
     37 N          -2.9039   55.1583   75.7107 N.ar    1  UNL1       -0.2499
     38 C          -2.7725   56.4717   75.7726 C.ar    1  UNL1        0.0829
     39 C          -3.9203   57.1675   75.4520 C.ar    1  UNL1        0.0305
     40 C          -3.9921   58.5378   75.6195 C.ar    1  UNL1        0.0592
     41 CL         -5.4769   59.3480   75.3026 Cl      1  UNL1       -0.0822
     42 C          -2.8818   59.2326   76.0771 C.ar    1  UNL1        0.0115
     43 C          -1.6854   58.5390   76.3419 C.ar    1  UNL1        0.0036
     44 C          -1.5923   57.1224   76.1975 C.ar    1  UNL1        0.0305
     45 C          -2.3120   52.9634   76.3867 C.3     1  UNL1        0.0455
     46 C          -1.1578   51.9975   76.5658 C.3     1  UNL1        0.0066
     47 C          -0.1576   52.5832   77.5377 C.3     1  UNL1        0.0052
     48 C           0.3877   53.9022   77.0101 C.3     1  UNL1        0.0288
@<TRIPOS>BOND
     1    20    21    1
     2    21    22   ar
     3    21    26   ar
     4    22    23   ar
     5    23    24   ar
     6    24    25   ar
     7    25    18    1
     8    25    26   ar
     9    18    12    1
    10    18    19    1
    11    12    13   ar
    12    12    17   ar
    13    13    14   ar
    14    14    15   ar
    15    15    16   ar
    16    16    17   ar
    17    17     8    1
    18     8     9    2
    19     8    10   am
    20    10     7    1
    21    10    11    1
    22     7     6    1
    23     6     5    1
    24     5     1    1
    25     1     2    2
    26     1     3   am
    27     3    28    1
    28     3     4    1
    29    28    29    1
    30    29    30    1
    31    30    31    1
    32    31    32    1
    33    32    34    1
    34    32    33    1
    35    34    35   ar
    36    34    44   ar
    37    35    36   ar
    38    35    48    1
    39    36    37   ar
    40    36    45    1
    41    37    38   ar
    42    38    39   ar
    43    38    44   ar
    44    39    40   ar
    45    40    41    1
    46    40    42   ar
    47    42    43   ar
    48    43    44   ar
    49    45    46    1
    50    46    47    1
    51    47    48    1
    52    26    27    1
#	Name:			CHEMBL2393107
#	Creating user name:	trannguyen
#	Creation time:		Tue Feb  8 17:54:08 2022


#	Modifying user name:	trannguyen
#	Modification time:	Tue Feb  8 17:54:08 2022

@<TRIPOS>MOLECULE
CHEMBL2393107
 50 54 0 0 0
SMALL
GASTEIGER

@<TRIPOS>ATOM
      1 C           0.3773   62.1078   77.4613 C.3     1  UNL1        0.0850
      2 C          -0.7505   62.9001   76.8126 C.2     1  UNL1        0.2225
      3 O          -1.0272   62.7636   75.6084 O.2     1  UNL1       -0.2751
      4 N          -1.3934   63.7910   77.6391 N.am    1  UNL1       -0.3043
      5 H          -1.0794   63.8691   78.6045 H       1  UNL1        0.1494
      6 C          -2.4893   64.6649   77.2279 C.3     1  UNL1        0.0894
      7 C          -3.6526   64.6695   78.2211 C.3     1  UNL1        0.0230
      8 C          -3.7661   63.3330   78.9527 C.3     1  UNL1        0.0229
      9 C          -4.6102   63.3830   80.2118 C.3     1  UNL1        0.0871
     10 N          -5.9268   62.7813   80.0111 N.pl3   1  UNL1       -0.3328
     11 H          -5.8889   61.8208   80.3384 H       1  UNL1        0.1468
     12 C          -6.7288   62.9104   78.8600 C.ar    1  UNL1        0.0431
     13 C          -6.7655   61.8160   77.9431 C.ar    1  UNL1        0.0045
     14 C          -7.5930   61.9190   76.8196 C.ar    1  UNL1        0.0561
     15 N          -8.3101   63.0219   76.5316 N.ar    1  UNL1       -0.2499
     16 C          -8.3033   64.0419   77.3865 C.ar    1  UNL1        0.0829
     17 C          -9.0799   65.1317   77.0248 C.ar    1  UNL1        0.0305
     18 C          -9.2054   66.2414   77.8483 C.ar    1  UNL1        0.0592
     19 CL        -10.1598   67.5826   77.3572 Cl      1  UNL1       -0.0822
     20 C          -8.5970   66.2457   79.0858 C.ar    1  UNL1        0.0115
     21 C          -7.8446   65.1360   79.4703 C.ar    1  UNL1        0.0036
     22 C          -7.5938   64.0331   78.6075 C.ar    1  UNL1        0.0305
     23 C          -7.8453   60.7600   75.8906 C.3     1  UNL1        0.0455
     24 C          -6.7193   59.7409   75.8663 C.3     1  UNL1        0.0066
     25 C          -6.3390   59.3680   77.2893 C.3     1  UNL1        0.0052
     26 C          -5.8679   60.5966   78.0713 C.3     1  UNL1        0.0288
     27 C           0.9216   61.0140   76.5379 C.3     1  UNL1        0.0096
     28 C           1.1459   59.6770   77.2611 C.3     1  UNL1        0.0023
     29 C           0.9094   58.4822   76.3201 C.3     1  UNL1        0.0213
     30 C           1.1988   57.1266   76.9794 C.3     1  UNL1        0.0897
     31 C          -0.1117   55.0162   77.3437 C.2     1  UNL1        0.2471
     32 O           0.3959   54.7644   78.4383 O.2     1  UNL1       -0.2701
     33 N           0.1975   56.1403   76.6115 N.am    1  UNL1       -0.3008
     34 H          -0.1991   56.1976   75.6853 H       1  UNL1        0.1497
     35 C          -2.5765   54.3636   76.7163 C.ar    1  UNL1        0.0527
     36 C          -3.4197   53.3004   76.2874 C.ar    1  UNL1        0.0148
     37 C          -2.9256   52.0587   75.8844 C.ar    1  UNL1        0.0013
     38 C          -1.5583   51.8467   75.8725 C.ar    1  UNL1        0.0002
     39 C          -0.6978   52.8692   76.2878 C.ar    1  UNL1        0.0058
     40 C          -1.1824   54.1161   76.7625 C.ar    1  UNL1        0.0667
     41 N          -3.2716   55.5253   77.1807 N.pl3   1  UNL1       -0.3127
     42 H          -4.2641   55.4119   76.9574 H       1  UNL1        0.1522
     43 C          -2.2253   60.0479   79.0545 C.3     1  UNL1        0.0307
     44 C          -2.5113   59.1229   77.8998 C.ar    1  UNL1       -0.0246
     45 C          -2.6895   59.6735   76.6244 C.ar    1  UNL1       -0.0045
     46 C          -3.0586   58.8709   75.5490 C.ar    1  UNL1        0.0009
     47 C          -3.2792   57.5096   75.7354 C.ar    1  UNL1        0.0143
     48 C          -3.0298   56.9130   76.9739 C.ar    1  UNL1        0.0440
     49 C          -2.6132   57.7206   78.0670 C.ar    1  UNL1       -0.0124
     50 C          -2.2064   57.1093   79.3885 C.3     1  UNL1        0.0320
@<TRIPOS>BOND
     1    43    44    1
     2    44    45   ar
     3    44    49   ar
     4    45    46   ar
     5    46    47   ar
     6    47    48   ar
     7    48    41    1
     8    48    49   ar
     9    41    35    1
    10    41    42    1
    11    35    36   ar
    12    35    40   ar
    13    36    37   ar
    14    37    38   ar
    15    38    39   ar
    16    39    40   ar
    17    40    31    1
    18    31    32    2
    19    31    33   am
    20    33    30    1
    21    33    34    1
    22    30    29    1
    23    29    28    1
    24    28    27    1
    25    27     1    1
    26     1     2    1
    27     2     3    2
    28     2     4   am
    29     4     6    1
    30     4     5    1
    31     6     7    1
    32     7     8    1
    33     8     9    1
    34     9    10    1
    35    10    12    1
    36    10    11    1
    37    12    13   ar
    38    12    22   ar
    39    13    14   ar
    40    13    26    1
    41    14    15   ar
    42    14    23    1
    43    15    16   ar
    44    16    17   ar
    45    16    22   ar
    46    17    18   ar
    47    18    19    1
    48    18    20   ar
    49    20    21   ar
    50    21    22   ar
    51    23    24    1
    52    24    25    1
    53    25    26    1
    54    49    50    1
#	Name:			CHEMBL2393109
#	Creating user name:	trannguyen
#	Creation time:		Tue Feb  8 17:54:08 2022


#	Modifying user name:	trannguyen
#	Modification time:	Tue Feb  8 17:54:08 2022

@<TRIPOS>MOLECULE
CHEMBL2393109
 49 53 0 0 0
SMALL
GASTEIGER

@<TRIPOS>ATOM
      1 C           0.2379   65.1897   71.3483 C.2     1  UNL1        0.2242
      2 O          -0.3901   64.6800   70.4209 O.2     1  UNL1       -0.2750
      3 N           0.1212   64.6390   72.5901 N.am    1  UNL1       -0.3043
      4 H          -0.4988   63.8361   72.6056 H       1  UNL1        0.1494
      5 C           1.1439   66.3925   71.1541 C.3     1  UNL1        0.1062
      6 C           1.0875   66.8721   69.7015 C.3     1  UNL1        0.0993
      7 C           2.0469   68.6966   68.2121 C.2     1  UNL1        0.2471
      8 O           1.2358   68.6304   67.3137 O.2     1  UNL1       -0.2701
      9 N           1.9309   68.0382   69.4355 N.am    1  UNL1       -0.3003
     10 H           2.6083   68.2022   70.1557 H       1  UNL1        0.1498
     11 C           3.8431   69.6621   66.7016 C.ar    1  UNL1        0.0527
     12 C           5.0702   70.3449   66.5724 C.ar    1  UNL1        0.0148
     13 C           5.7267   70.8985   67.6736 C.ar    1  UNL1        0.0013
     14 C           5.1717   70.7845   68.9375 C.ar    1  UNL1        0.0002
     15 C           3.9723   70.0976   69.1032 C.ar    1  UNL1        0.0058
     16 C           3.2946   69.5216   68.0042 C.ar    1  UNL1        0.0667
     17 N           3.1998   69.1675   65.5380 N.pl3   1  UNL1       -0.3127
     18 H           2.1848   69.0629   65.6285 H       1  UNL1        0.1522
     19 C           4.4195   64.7815   63.4431 C.3     1  UNL1        0.0307
     20 C           4.3324   66.2845   63.3833 C.ar    1  UNL1       -0.0246
     21 C           5.0804   66.9597   62.4161 C.ar    1  UNL1       -0.0045
     22 C           5.1185   68.3487   62.4129 C.ar    1  UNL1        0.0009
     23 C           4.4908   69.0727   63.4351 C.ar    1  UNL1        0.0143
     24 C           3.7402   68.4331   64.4356 C.ar    1  UNL1        0.0440
     25 C           3.5713   67.0299   64.3263 C.ar    1  UNL1       -0.0124
     26 C           2.5004   66.3062   65.1011 C.3     1  UNL1        0.0320
     27 C           0.7739   65.0073   73.8327 C.3     1  UNL1        0.0894
     28 C           0.6009   63.9364   74.9101 C.3     1  UNL1        0.0212
     29 C          -0.6424   64.2036   75.7623 C.3     1  UNL1        0.0018
     30 C          -1.0183   62.9900   76.6212 C.3     1  UNL1        0.0018
     31 C          -1.1057   63.3745   78.0999 C.3     1  UNL1        0.0212
     32 C          -0.0237   62.7445   78.9889 C.3     1  UNL1        0.0870
     33 N           1.0898   62.2422   78.1882 N.pl3   1  UNL1       -0.3328
     34 H           1.0121   62.4278   77.1913 H       1  UNL1        0.1468
     35 C           1.6660   60.9748   78.4276 C.ar    1  UNL1        0.0431
     36 C           2.8920   60.9604   79.1413 C.ar    1  UNL1        0.0045
     37 C           3.5426   59.7387   79.3314 C.ar    1  UNL1        0.0561
     38 N           3.0225   58.5615   78.9321 N.ar    1  UNL1       -0.2499
     39 C           1.8992   58.5631   78.2164 C.ar    1  UNL1        0.0829
     40 C           1.4593   57.3223   77.7843 C.ar    1  UNL1        0.0305
     41 C           0.3532   57.1967   76.9562 C.ar    1  UNL1        0.0592
     42 CL         -0.1671   55.6404   76.4430 Cl      1  UNL1       -0.0822
     43 C          -0.3082   58.3287   76.5154 C.ar    1  UNL1        0.0115
     44 C           0.1255   59.5851   76.9472 C.ar    1  UNL1        0.0036
     45 C           1.1995   59.7424   77.8632 C.ar    1  UNL1        0.0305
     46 C           4.8824   59.6347   80.0115 C.3     1  UNL1        0.0455
     47 C           5.6436   60.9530   80.0159 C.3     1  UNL1        0.0066
     48 C           4.7371   62.0503   80.5518 C.3     1  UNL1        0.0052
     49 C           3.5185   62.2444   79.6438 C.3     1  UNL1        0.0288
@<TRIPOS>BOND
     1    19    20    1
     2    20    21   ar
     3    20    25   ar
     4    21    22   ar
     5    22    23   ar
     6    23    24   ar
     7    24    17    1
     8    24    25   ar
     9    17    11    1
    10    17    18    1
    11    11    12   ar
    12    11    16   ar
    13    12    13   ar
    14    13    14   ar
    15    14    15   ar
    16    15    16   ar
    17    16     7    1
    18     7     8    2
    19     7     9   am
    20     9     6    1
    21     9    10    1
    22     6     5    1
    23     5     1    1
    24     1     2    2
    25     1     3   am
    26     3    27    1
    27     3     4    1
    28    27    28    1
    29    28    29    1
    30    29    30    1
    31    30    31    1
    32    31    32    1
    33    32    33    1
    34    33    35    1
    35    33    34    1
    36    35    36   ar
    37    35    45   ar
    38    36    37   ar
    39    36    49    1
    40    37    38   ar
    41    37    46    1
    42    38    39   ar
    43    39    40   ar
    44    39    45   ar
    45    40    41   ar
    46    41    42    1
    47    41    43   ar
    48    43    44   ar
    49    44    45   ar
    50    46    47    1
    51    47    48    1
    52    48    49    1
    53    25    26    1
#	Name:			CHEMBL2393110
#	Creating user name:	trannguyen
#	Creation time:		Tue Feb  8 17:54:08 2022


#	Modifying user name:	trannguyen
#	Modification time:	Tue Feb  8 17:54:08 2022

@<TRIPOS>MOLECULE
CHEMBL2393110
 50 54 0 0 0
SMALL
GASTEIGER

@<TRIPOS>ATOM
      1 C           2.6423   60.3931   69.6368 C.2     1  UNL1        0.2225
      2 O           2.9349   59.3493   69.0254 O.2     1  UNL1       -0.2751
      3 N           2.7542   61.6307   69.0658 N.am    1  UNL1       -0.3043
      4 H           2.4623   62.4470   69.5947 H       1  UNL1        0.1494
      5 C           2.1631   60.4115   71.0704 C.3     1  UNL1        0.0868
      6 C           2.2114   59.0449   71.7593 C.3     1  UNL1        0.0308
      7 C           3.2421   58.9614   72.8851 C.3     1  UNL1        0.0902
      8 C           2.5290   60.0658   75.0385 C.2     1  UNL1        0.2471
      9 O           2.8992   61.1893   74.6868 O.2     1  UNL1       -0.2701
     10 N           2.5784   58.9317   74.2110 N.am    1  UNL1       -0.3008
     11 H           2.2777   58.0305   74.5200 H       1  UNL1        0.1497
     12 C           0.7997   59.1143   76.6806 C.ar    1  UNL1        0.0527
     13 C           0.3516   59.0454   78.0043 C.ar    1  UNL1        0.0148
     14 C           1.0427   59.6435   79.0625 C.ar    1  UNL1        0.0013
     15 C           2.2216   60.3257   78.8165 C.ar    1  UNL1        0.0002
     16 C           2.6922   60.4420   77.5085 C.ar    1  UNL1        0.0058
     17 C           2.0022   59.8420   76.4165 C.ar    1  UNL1        0.0667
     18 N           0.0981   58.3700   75.6845 N.pl3   1  UNL1       -0.3127
     19 H           0.2839   58.6871   74.7265 H       1  UNL1        0.1522
     20 C          -2.3681   54.0409   75.6648 C.3     1  UNL1        0.0307
     21 C          -2.3713   55.5444   75.7560 C.ar    1  UNL1       -0.0246
     22 C          -3.5800   56.2330   75.6370 C.ar    1  UNL1       -0.0045
     23 C          -3.5854   57.6231   75.6078 C.ar    1  UNL1        0.0009
     24 C          -2.3775   58.3329   75.6107 C.ar    1  UNL1        0.0143
     25 C          -1.1463   57.6775   75.7620 C.ar    1  UNL1        0.0440
     26 C          -1.1748   56.2772   75.9664 C.ar    1  UNL1       -0.0124
     27 C           0.0144   55.5524   76.5434 C.3     1  UNL1        0.0320
     28 C           3.1537   61.8083   67.6825 C.3     1  UNL1        0.0894
     29 C           3.6717   63.2218   67.3952 C.3     1  UNL1        0.0212
     30 C           3.4761   63.5894   65.9244 C.3     1  UNL1        0.0018
     31 C           3.6701   65.0809   65.6359 C.3     1  UNL1        0.0018
     32 C           2.3374   65.7977   65.3475 C.3     1  UNL1        0.0212
     33 C           1.9784   66.8167   66.4316 C.3     1  UNL1        0.0870
     34 N           2.0548   68.1812   65.9258 N.pl3   1  UNL1       -0.3328
     35 H           1.2489   68.4201   65.3485 H       1  UNL1        0.1468
     36 C           3.2312   68.7111   65.3388 C.ar    1  UNL1        0.0431
     37 C           3.5423   68.6784   63.9549 C.ar    1  UNL1        0.0045
     38 C           4.7521   69.2644   63.5466 C.ar    1  UNL1        0.0561
     39 N           5.6261   69.8523   64.3889 N.ar    1  UNL1       -0.2499
     40 C           5.3247   69.9237   65.6813 C.ar    1  UNL1        0.0829
     41 C           6.2486   70.5591   66.4928 C.ar    1  UNL1        0.0305
     42 C           6.0048   70.7484   67.8464 C.ar    1  UNL1        0.0592
     43 CL          7.1733   71.5554   68.8167 Cl      1  UNL1       -0.0822
     44 C           4.8227   70.2933   68.4097 C.ar    1  UNL1        0.0115
     45 C           3.8977   69.6175   67.6074 C.ar    1  UNL1        0.0036
     46 C           4.1270   69.4117   66.2193 C.ar    1  UNL1        0.0305
     47 C           5.1395   69.3986   62.0971 C.3     1  UNL1        0.0455
     48 C           4.4816   68.3649   61.2023 C.3     1  UNL1        0.0066
     49 C           2.9853   68.3765   61.4503 C.3     1  UNL1        0.0052
     50 C           2.6750   68.0221   62.9040 C.3     1  UNL1        0.0288
@<TRIPOS>BOND
     1    20    21    1
     2    21    22   ar
     3    21    26   ar
     4    22    23   ar
     5    23    24   ar
     6    24    25   ar
     7    25    18    1
     8    25    26   ar
     9    18    12    1
    10    18    19    1
    11    12    13   ar
    12    12    17   ar
    13    13    14   ar
    14    14    15   ar
    15    15    16   ar
    16    16    17   ar
    17    17     8    1
    18     8     9    2
    19     8    10   am
    20    10     7    1
    21    10    11    1
    22     7     6    1
    23     6     5    1
    24     5     1    1
    25     1     2    2
    26     1     3   am
    27     3    28    1
    28     3     4    1
    29    28    29    1
    30    29    30    1
    31    30    31    1
    32    31    32    1
    33    32    33    1
    34    33    34    1
    35    34    36    1
    36    34    35    1
    37    36    37   ar
    38    36    46   ar
    39    37    38   ar
    40    37    50    1
    41    38    39   ar
    42    38    47    1
    43    39    40   ar
    44    40    41   ar
    45    40    46   ar
    46    41    42   ar
    47    42    43    1
    48    42    44   ar
    49    44    45   ar
    50    45    46   ar
    51    47    48    1
    52    48    49    1
    53    49    50    1
    54    26    27    1
#	Name:			CHEMBL2393111
#	Creating user name:	trannguyen
#	Creation time:		Tue Feb  8 17:54:08 2022


#	Modifying user name:	trannguyen
#	Modification time:	Tue Feb  8 17:54:08 2022

@<TRIPOS>MOLECULE
CHEMBL2393111
 52 56 0 0 0
SMALL
GASTEIGER

@<TRIPOS>ATOM
      1 C           2.0816   60.5901   70.5197 C.2     1  UNL1        0.2225
      2 O           1.0303   61.2293   70.4629 O.2     1  UNL1       -0.2751
      3 N           2.3788   59.9266   71.6741 N.am    1  UNL1       -0.3043
      4 H           1.6538   60.0254   72.3772 H       1  UNL1        0.1494
      5 C           3.0186   60.5117   69.3293 C.3     1  UNL1        0.0850
      6 C           2.6720   61.5559   68.2736 C.3     1  UNL1        0.0096
      7 C           3.9403   62.1669   67.6733 C.3     1  UNL1        0.0023
      8 C           3.6946   63.4716   66.9129 C.3     1  UNL1        0.0213
      9 C           3.6763   63.3194   65.3884 C.3     1  UNL1        0.0897
     10 C           3.2209   65.6385   64.5570 C.2     1  UNL1        0.2471
     11 O           2.0903   65.7129   65.0324 O.2     1  UNL1       -0.2701
     12 N           4.0805   64.5612   64.7465 N.am    1  UNL1       -0.3008
     13 H           5.0780   64.7181   64.6635 H       1  UNL1        0.1497
     14 C           3.7891   68.1332   64.1166 C.ar    1  UNL1        0.0527
     15 C           4.2490   69.0805   63.1766 C.ar    1  UNL1        0.0148
     16 C           4.5743   68.7317   61.8617 C.ar    1  UNL1        0.0013
     17 C           4.4737   67.4134   61.4481 C.ar    1  UNL1        0.0002
     18 C           4.0510   66.4441   62.3522 C.ar    1  UNL1        0.0058
     19 C           3.7269   66.7689   63.6925 C.ar    1  UNL1        0.0667
     20 N           3.5113   68.5626   65.4508 N.pl3   1  UNL1       -0.3127
     21 H           2.4979   68.6804   65.5948 H       1  UNL1        0.1522
     22 C           4.0510   71.0447   69.7919 C.3     1  UNL1        0.0307
     23 C           4.5558   70.6006   68.4463 C.ar    1  UNL1       -0.0246
     24 C           5.8463   70.9914   68.0617 C.ar    1  UNL1       -0.0045
     25 C           6.3422   70.6282   66.8142 C.ar    1  UNL1        0.0009
     26 C           5.5631   69.8454   65.9542 C.ar    1  UNL1        0.0143
     27 C           4.2794   69.3983   66.3154 C.ar    1  UNL1        0.0440
     28 C           3.7497   69.8293   67.5570 C.ar    1  UNL1       -0.0124
     29 C           2.3669   69.4194   68.0039 C.3     1  UNL1        0.0320
     30 C           3.4796   59.0250   71.9616 C.3     1  UNL1        0.0894
     31 C           3.8722   59.0079   73.4378 C.3     1  UNL1        0.0212
     32 C           2.9612   59.8554   74.3297 C.3     1  UNL1        0.0018
     33 C           1.8603   59.0570   75.0243 C.3     1  UNL1        0.0018
     34 C           1.3862   59.7241   76.3213 C.3     1  UNL1        0.0212
     35 C           0.0049   59.2517   76.7587 C.3     1  UNL1        0.0870
     36 N          -0.5471   58.2321   75.8561 N.pl3   1  UNL1       -0.3328
     37 H           0.2100   57.7281   75.3956 H       1  UNL1        0.1468
     38 C          -1.5936   57.3732   76.3119 C.ar    1  UNL1        0.0431
     39 C          -1.2473   56.0513   76.7320 C.ar    1  UNL1        0.0045
     40 C          -2.2814   55.1800   77.1073 C.ar    1  UNL1        0.0561
     41 N          -3.5655   55.5646   77.2488 N.ar    1  UNL1       -0.2499
     42 C          -3.9111   56.8050   76.8678 C.ar    1  UNL1        0.0829
     43 C          -5.2529   57.1450   77.0445 C.ar    1  UNL1        0.0305
     44 C          -5.7644   58.3602   76.6090 C.ar    1  UNL1        0.0592
     45 CL         -7.4173   58.7597   76.8794 Cl      1  UNL1       -0.0822
     46 C          -4.9594   59.2299   75.9064 C.ar    1  UNL1        0.0115
     47 C          -3.6180   58.8918   75.7042 C.ar    1  UNL1        0.0036
     48 C          -3.0052   57.7272   76.2831 C.ar    1  UNL1        0.0305
     49 C          -2.0449   53.7209   77.3969 C.3     1  UNL1        0.0455
     50 C          -0.6951   53.2149   76.9057 C.3     1  UNL1        0.0066
     51 C           0.3875   54.1674   77.3784 C.3     1  UNL1        0.0052
     52 C           0.1863   55.5587   76.7614 C.3     1  UNL1        0.0288
@<TRIPOS>BOND
     1    22    23    1
     2    23    24   ar
     3    23    28   ar
     4    24    25   ar
     5    25    26   ar
     6    26    27   ar
     7    27    20    1
     8    27    28   ar
     9    20    14    1
    10    20    21    1
    11    14    15   ar
    12    14    19   ar
    13    15    16   ar
    14    16    17   ar
    15    17    18   ar
    16    18    19   ar
    17    19    10    1
    18    10    11    2
    19    10    12   am
    20    12     9    1
    21    12    13    1
    22     9     8    1
    23     8     7    1
    24     7     6    1
    25     6     5    1
    26     5     1    1
    27     1     2    2
    28     1     3   am
    29     3    30    1
    30     3     4    1
    31    30    31    1
    32    31    32    1
    33    32    33    1
    34    33    34    1
    35    34    35    1
    36    35    36    1
    37    36    38    1
    38    36    37    1
    39    38    39   ar
    40    38    48   ar
    41    39    40   ar
    42    39    52    1
    43    40    41   ar
    44    40    49    1
    45    41    42   ar
    46    42    43   ar
    47    42    48   ar
    48    43    44   ar
    49    44    45    1
    50    44    46   ar
    51    46    47   ar
    52    47    48   ar
    53    49    50    1
    54    50    51    1
    55    51    52    1
    56    28    29    1
#	Name:			CHEMBL2393224
#	Creating user name:	trannguyen
#	Creation time:		Tue Feb  8 17:54:08 2022


#	Modifying user name:	trannguyen
#	Modification time:	Tue Feb  8 17:54:08 2022

@<TRIPOS>MOLECULE
CHEMBL2393224
 50 54 0 0 0
SMALL
GASTEIGER

@<TRIPOS>ATOM
      1 C           1.3630   58.8386   76.2683 C.2     1  UNL1        0.2242
      2 O           0.7701   58.6558   75.2121 O.2     1  UNL1       -0.2750
      3 N           1.5345   57.8428   77.2127 N.am    1  UNL1       -0.3043
      4 H           2.2447   57.9788   77.9190 H       1  UNL1        0.1494
      5 C           1.9294   60.1947   76.6782 C.3     1  UNL1        0.1062
      6 C           0.8203   61.2211   76.9237 C.3     1  UNL1        0.0993
      7 C          -1.5652   60.5399   77.3727 C.2     1  UNL1        0.2471
      8 O          -1.9552   60.8929   76.2460 O.2     1  UNL1       -0.2701
      9 N          -0.2437   60.6408   77.7429 N.am    1  UNL1       -0.3003
     10 H           0.0521   60.1879   78.5980 H       1  UNL1        0.1498
     11 C          -3.7175   60.6763   78.7258 C.ar    1  UNL1        0.0527
     12 C          -4.6498   60.0866   79.6123 C.ar    1  UNL1        0.0148
     13 C          -4.3991   58.8815   80.2518 C.ar    1  UNL1        0.0013
     14 C          -3.2233   58.2083   79.9705 C.ar    1  UNL1        0.0002
     15 C          -2.3045   58.7388   79.0471 C.ar    1  UNL1        0.0058
     16 C          -2.5430   59.9649   78.3862 C.ar    1  UNL1        0.0667
     17 N          -4.0331   61.9402   78.1588 N.pl3   1  UNL1       -0.3127
     18 H          -3.4533   62.1258   77.3280 H       1  UNL1        0.1522
     19 C          -2.3723   66.0759   80.3794 C.3     1  UNL1        0.0307
     20 C          -3.4897   65.1953   79.8966 C.ar    1  UNL1       -0.0246
     21 C          -4.7999   65.4832   80.3112 C.ar    1  UNL1       -0.0045
     22 C          -5.8324   64.5927   80.0598 C.ar    1  UNL1        0.0009
     23 C          -5.5521   63.3984   79.4133 C.ar    1  UNL1        0.0143
     24 C          -4.2816   63.1422   78.8685 C.ar    1  UNL1        0.0440
     25 C          -3.2417   64.0679   79.0815 C.ar    1  UNL1       -0.0124
     26 C          -1.8852   63.8511   78.4564 C.3     1  UNL1        0.0320
     27 C           1.0631   56.4776   76.9998 C.3     1  UNL1        0.0894
     28 C          -0.4516   56.3364   77.1787 C.3     1  UNL1        0.0212
     29 C          -1.0726   55.2846   76.2535 C.3     1  UNL1        0.0017
     30 C          -1.8954   55.9618   75.1490 C.3     1  UNL1        0.0001
     31 C          -2.4680   57.3227   75.5658 C.3     1  UNL1        0.0017
     32 C          -3.9351   57.2822   76.0105 C.3     1  UNL1        0.0212
     33 C          -4.6451   58.6177   75.7792 C.3     1  UNL1        0.0870
     34 N          -6.0900   58.4896   75.9095 N.pl3   1  UNL1       -0.3328
     35 H          -6.5411   57.9147   75.2109 H       1  UNL1        0.1468
     36 C          -6.8583   58.8766   77.0158 C.ar    1  UNL1        0.0431
     37 C          -7.2101   57.9902   78.0679 C.ar    1  UNL1        0.0045
     38 C          -8.0924   58.4538   79.0534 C.ar    1  UNL1        0.0561
     39 N          -8.5275   59.7280   79.1240 N.ar    1  UNL1       -0.2499
     40 C          -8.1619   60.5885   78.1801 C.ar    1  UNL1        0.0829
     41 C          -8.6425   61.8792   78.3296 C.ar    1  UNL1        0.0305
     42 C          -8.3863   62.8591   77.3823 C.ar    1  UNL1        0.0592
     43 CL         -9.0098   64.4474   77.6021 Cl      1  UNL1       -0.0822
     44 C          -7.6353   62.5527   76.2602 C.ar    1  UNL1        0.0115
     45 C          -7.1178   61.2590   76.1120 C.ar    1  UNL1        0.0036
     46 C          -7.3552   60.2340   77.0749 C.ar    1  UNL1        0.0305
     47 C          -8.6246   57.5695   80.1531 C.3     1  UNL1        0.0455
     48 C          -8.3952   56.0864   79.9094 C.3     1  UNL1        0.0066
     49 C          -6.9443   55.8790   79.5184 C.3     1  UNL1        0.0052
     50 C          -6.6866   56.5735   78.1820 C.3     1  UNL1        0.0288
@<TRIPOS>BOND
     1    19    20    1
     2    20    21   ar
     3    20    25   ar
     4    21    22   ar
     5    22    23   ar
     6    23    24   ar
     7    24    17    1
     8    24    25   ar
     9    17    11    1
    10    17    18    1
    11    11    12   ar
    12    11    16   ar
    13    12    13   ar
    14    13    14   ar
    15    14    15   ar
    16    15    16   ar
    17    16     7    1
    18     7     8    2
    19     7     9   am
    20     9     6    1
    21     9    10    1
    22     6     5    1
    23     5     1    1
    24     1     2    2
    25     1     3   am
    26     3    27    1
    27     3     4    1
    28    27    28    1
    29    28    29    1
    30    29    30    1
    31    30    31    1
    32    31    32    1
    33    32    33    1
    34    33    34    1
    35    34    36    1
    36    34    35    1
    37    36    37   ar
    38    36    46   ar
    39    37    38   ar
    40    37    50    1
    41    38    39   ar
    42    38    47    1
    43    39    40   ar
    44    40    41   ar
    45    40    46   ar
    46    41    42   ar
    47    42    43    1
    48    42    44   ar
    49    44    45   ar
    50    45    46   ar
    51    47    48    1
    52    48    49    1
    53    49    50    1
    54    25    26    1
#	Name:			CHEMBL2393225
#	Creating user name:	trannguyen
#	Creation time:		Tue Feb  8 17:54:08 2022


#	Modifying user name:	trannguyen
#	Modification time:	Tue Feb  8 17:54:08 2022

@<TRIPOS>MOLECULE
CHEMBL2393225
 51 55 0 0 0
SMALL
GASTEIGER

@<TRIPOS>ATOM
      1 C           2.6809   60.3735   69.6248 C.2     1  UNL1        0.2225
      2 O           3.1143   59.3276   69.1472 O.2     1  UNL1       -0.2751
      3 N           2.7817   61.6097   69.0098 N.am    1  UNL1       -0.3043
      4 H           2.3494   62.4333   69.4199 H       1  UNL1        0.1494
      5 C           2.0264   60.4428   70.9910 C.3     1  UNL1        0.0868
      6 C           2.1920   59.1377   71.7672 C.3     1  UNL1        0.0308
      7 C           2.9474   59.3635   73.0759 C.3     1  UNL1        0.0902
      8 C           1.7598   58.8864   75.2045 C.2     1  UNL1        0.2471
      9 O           2.3235   57.8135   75.3646 O.2     1  UNL1       -0.2701
     10 N           2.0516   59.7388   74.1531 N.am    1  UNL1       -0.3008
     11 H           1.6652   60.6711   74.1466 H       1  UNL1        0.1497
     12 C          -0.4181   58.5240   76.4709 C.ar    1  UNL1        0.0527
     13 C          -1.4158   59.0481   77.3276 C.ar    1  UNL1        0.0148
     14 C          -1.3501   60.3468   77.8339 C.ar    1  UNL1        0.0013
     15 C          -0.2615   61.1469   77.5276 C.ar    1  UNL1        0.0002
     16 C           0.7450   60.6628   76.6919 C.ar    1  UNL1        0.0058
     17 C           0.6898   59.3516   76.1599 C.ar    1  UNL1        0.0667
     18 N          -0.5095   57.1620   76.0570 N.pl3   1  UNL1       -0.3127
     19 H          -1.3084   57.0028   75.4320 H       1  UNL1        0.1522
     20 C          -1.5876   52.4179   77.2665 C.3     1  UNL1        0.0307
     21 C          -0.7955   53.6835   77.4526 C.ar    1  UNL1       -0.0246
     22 C           0.1137   53.7524   78.5168 C.ar    1  UNL1       -0.0045
     23 C           0.8250   54.9197   78.7581 C.ar    1  UNL1        0.0009
     24 C           0.6092   56.0426   77.9569 C.ar    1  UNL1        0.0143
     25 C          -0.2619   55.9997   76.8508 C.ar    1  UNL1        0.0440
     26 C          -0.9458   54.7899   76.5770 C.ar    1  UNL1       -0.0124
     27 C          -1.8040   54.6420   75.3436 C.3     1  UNL1        0.0320
     28 C           3.3603   61.7496   67.6914 C.3     1  UNL1        0.0894
     29 C           3.4975   63.2174   67.2900 C.3     1  UNL1        0.0212
     30 C           4.1287   63.3370   65.9013 C.3     1  UNL1        0.0017
     31 C           3.3031   64.2250   64.9710 C.3     1  UNL1        0.0001
     32 C           3.2046   65.6863   65.4574 C.3     1  UNL1        0.0017
     33 C           1.7904   66.3143   65.4830 C.3     1  UNL1        0.0212
     34 C           1.7277   67.4058   66.5413 C.3     1  UNL1        0.0870
     35 N           1.9455   68.7664   66.0630 N.pl3   1  UNL1       -0.3328
     36 H           1.6235   69.4452   66.7490 H       1  UNL1        0.1468
     37 C           3.2445   69.0930   65.5343 C.ar    1  UNL1        0.0431
     38 C           3.5800   68.9876   64.1491 C.ar    1  UNL1        0.0045
     39 C           4.8894   69.2997   63.7579 C.ar    1  UNL1        0.0561
     40 N           5.8101   69.8300   64.5900 N.ar    1  UNL1       -0.2499
     41 C           5.4831   70.0348   65.8671 C.ar    1  UNL1        0.0829
     42 C           6.4603   70.6237   66.6629 C.ar    1  UNL1        0.0305
     43 C           6.2575   70.8484   68.0185 C.ar    1  UNL1        0.0592
     44 CL          7.5001   71.5785   68.9603 Cl      1  UNL1       -0.0822
     45 C           5.0619   70.4807   68.6113 C.ar    1  UNL1        0.0115
     46 C           4.0580   69.9094   67.8225 C.ar    1  UNL1        0.0036
     47 C           4.2284   69.6743   66.4228 C.ar    1  UNL1        0.0305
     48 C           5.3852   69.0887   62.3485 C.3     1  UNL1        0.0455
     49 C           4.5167   68.1402   61.5318 C.3     1  UNL1        0.0066
     50 C           3.0832   68.6109   61.6231 C.3     1  UNL1        0.0052
     51 C           2.6198   68.5279   63.0708 C.3     1  UNL1        0.0288
@<TRIPOS>BOND
     1    20    21    1
     2    21    22   ar
     3    21    26   ar
     4    22    23   ar
     5    23    24   ar
     6    24    25   ar
     7    25    18    1
     8    25    26   ar
     9    18    12    1
    10    18    19    1
    11    12    13   ar
    12    12    17   ar
    13    13    14   ar
    14    14    15   ar
    15    15    16   ar
    16    16    17   ar
    17    17     8    1
    18     8     9    2
    19     8    10   am
    20    10     7    1
    21    10    11    1
    22     7     6    1
    23     6     5    1
    24     5     1    1
    25     1     2    2
    26     1     3   am
    27     3    28    1
    28     3     4    1
    29    28    29    1
    30    29    30    1
    31    30    31    1
    32    31    32    1
    33    32    33    1
    34    33    34    1
    35    34    35    1
    36    35    37    1
    37    35    36    1
    38    37    38   ar
    39    37    47   ar
    40    38    39   ar
    41    38    51    1
    42    39    40   ar
    43    39    48    1
    44    40    41   ar
    45    41    42   ar
    46    41    47   ar
    47    42    43   ar
    48    43    44    1
    49    43    45   ar
    50    45    46   ar
    51    46    47   ar
    52    48    49    1
    53    49    50    1
    54    50    51    1
    55    26    27    1
#	Name:			CHEMBL2393226
#	Creating user name:	trannguyen
#	Creation time:		Tue Feb  8 17:54:08 2022


#	Modifying user name:	trannguyen
#	Modification time:	Tue Feb  8 17:54:08 2022

@<TRIPOS>MOLECULE
CHEMBL2393226
 53 57 0 0 0
SMALL
GASTEIGER

@<TRIPOS>ATOM
      1 C           2.9207   59.4065   69.6760 C.2     1  UNL1        0.2225
      2 O           3.4009   58.6127   68.8670 O.2     1  UNL1       -0.2751
      3 N           2.6557   58.9892   70.9471 N.am    1  UNL1       -0.3043
      4 H           2.9134   58.0205   71.1032 H       1  UNL1        0.1494
      5 C           2.6314   60.8333   69.2700 C.3     1  UNL1        0.0850
      6 C           3.6988   61.4638   68.3925 C.3     1  UNL1        0.0096
      7 C           3.0408   62.5470   67.5324 C.3     1  UNL1        0.0023
      8 C           4.0366   63.3117   66.6609 C.3     1  UNL1        0.0213
      9 C           3.5551   63.4115   65.2114 C.3     1  UNL1        0.0897
     10 C           3.2365   65.8424   64.6925 C.2     1  UNL1        0.2471
     11 O           2.1951   65.9415   65.3542 O.2     1  UNL1       -0.2701
     12 N           3.9278   64.6572   64.5687 N.am    1  UNL1       -0.3008
     13 H           4.7708   64.6022   64.0155 H       1  UNL1        0.1497
     14 C           3.7229   68.3543   64.4316 C.ar    1  UNL1        0.0527
     15 C           4.2394   69.3522   63.5764 C.ar    1  UNL1        0.0148
     16 C           4.8610   69.0537   62.3567 C.ar    1  UNL1        0.0013
     17 C           4.9915   67.7389   61.9526 C.ar    1  UNL1        0.0002
     18 C           4.4594   66.7337   62.7475 C.ar    1  UNL1        0.0058
     19 C           3.8196   67.0147   63.9768 C.ar    1  UNL1        0.0667
     20 N           3.1340   68.7380   65.6660 N.pl3   1  UNL1       -0.3127
     21 H           2.1330   68.5647   65.7413 H       1  UNL1        0.1522
     22 C           7.0267   70.8058   68.1567 C.3     1  UNL1        0.0307
     23 C           5.5552   70.5341   67.9721 C.ar    1  UNL1       -0.0246
     24 C           4.6837   70.9170   68.9973 C.ar    1  UNL1       -0.0045
     25 C           3.3488   70.5405   68.9475 C.ar    1  UNL1        0.0009
     26 C           2.8745   69.7705   67.8795 C.ar    1  UNL1        0.0143
     27 C           3.6888   69.4351   66.7828 C.ar    1  UNL1        0.0440
     28 C           5.0424   69.8691   66.8167 C.ar    1  UNL1       -0.0124
     29 C           5.9645   69.6868   65.6376 C.3     1  UNL1        0.0320
     30 C           2.1199   59.7369   72.0716 C.3     1  UNL1        0.0894
     31 C           2.5636   59.1983   73.4370 C.3     1  UNL1        0.0212
     32 C           3.1921   60.2596   74.3400 C.3     1  UNL1        0.0017
     33 C           2.5060   60.4542   75.6845 C.3     1  UNL1        0.0001
     34 C           1.3606   59.4829   75.9398 C.3     1  UNL1        0.0017
     35 C           1.5290   58.7512   77.2736 C.3     1  UNL1        0.0212
     36 C           1.3731   57.2480   77.0887 C.3     1  UNL1        0.0870
     37 N           0.1211   56.8101   77.6860 N.pl3   1  UNL1       -0.3328
     38 H          -0.1789   57.4506   78.4104 H       1  UNL1        0.1468
     39 C          -0.9516   56.2527   76.9595 C.ar    1  UNL1        0.0431
     40 C          -1.0966   54.8622   76.7133 C.ar    1  UNL1        0.0045
     41 C          -2.2438   54.4345   76.0302 C.ar    1  UNL1        0.0561
     42 N          -3.2588   55.2518   75.6850 N.ar    1  UNL1       -0.2499
     43 C          -3.1573   56.5514   75.9426 C.ar    1  UNL1        0.0829
     44 C          -4.2381   57.3307   75.5612 C.ar    1  UNL1        0.0305
     45 C          -4.2264   58.7087   75.7228 C.ar    1  UNL1        0.0592
     46 CL         -5.5780   59.6459   75.2210 Cl      1  UNL1       -0.0822
     47 C          -3.1204   59.3289   76.2759 C.ar    1  UNL1        0.0115
     48 C          -2.0371   58.5505   76.6927 C.ar    1  UNL1        0.0036
     49 C          -2.0239   57.1326   76.5515 C.ar    1  UNL1        0.0305
     50 C          -2.4684   52.9958   75.6436 C.3     1  UNL1        0.0455
     51 C          -1.1843   52.1842   75.6079 C.3     1  UNL1        0.0066
     52 C          -0.4691   52.3608   76.9310 C.3     1  UNL1        0.0052
     53 C          -0.0754   53.8240   77.1236 C.3     1  UNL1        0.0288
@<TRIPOS>BOND
     1    22    23    1
     2    23    24   ar
     3    23    28   ar
     4    24    25   ar
     5    25    26   ar
     6    26    27   ar
     7    27    20    1
     8    27    28   ar
     9    20    14    1
    10    20    21    1
    11    14    15   ar
    12    14    19   ar
    13    15    16   ar
    14    16    17   ar
    15    17    18   ar
    16    18    19   ar
    17    19    10    1
    18    10    11    2
    19    10    12   am
    20    12     9    1
    21    12    13    1
    22     9     8    1
    23     8     7    1
    24     7     6    1
    25     6     5    1
    26     5     1    1
    27     1     2    2
    28     1     3   am
    29     3    30    1
    30     3     4    1
    31    30    31    1
    32    31    32    1
    33    32    33    1
    34    33    34    1
    35    34    35    1
    36    35    36    1
    37    36    37    1
    38    37    39    1
    39    37    38    1
    40    39    40   ar
    41    39    49   ar
    42    40    41   ar
    43    40    53    1
    44    41    42   ar
    45    41    50    1
    46    42    43   ar
    47    43    44   ar
    48    43    49   ar
    49    44    45   ar
    50    45    46    1
    51    45    47   ar
    52    47    48   ar
    53    48    49   ar
    54    50    51    1
    55    51    52    1
    56    52    53    1
    57    28    29    1
#	Name:			CHEMBL2393227
#	Creating user name:	trannguyen
#	Creation time:		Tue Feb  8 17:54:08 2022


#	Modifying user name:	trannguyen
#	Modification time:	Tue Feb  8 17:54:08 2022

@<TRIPOS>MOLECULE
CHEMBL2393227
 45 49 0 0 0
SMALL
GASTEIGER

@<TRIPOS>ATOM
      1 C          -0.8563   61.9629   76.7163 C.3     1  UNL1        0.0017
      2 C          -1.2829   62.8735   77.8764 C.3     1  UNL1        0.0213
      3 C          -2.6210   62.4397   78.5154 C.3     1  UNL1        0.0897
      4 C          -3.6582   60.2946   79.3274 C.2     1  UNL1        0.2471
      5 O          -4.6650   60.8594   79.7977 O.2     1  UNL1       -0.2701
      6 N          -2.6547   61.0027   78.6277 N.am    1  UNL1       -0.3008
      7 H          -2.0981   60.4777   78.0209 H       1  UNL1        0.1497
      8 C          -4.5351   57.8931   79.5591 C.ar    1  UNL1        0.0527
      9 C          -4.1998   56.5120   79.6882 C.ar    1  UNL1        0.0148
     10 C          -2.8866   56.0634   79.6092 C.ar    1  UNL1        0.0013
     11 C          -1.8548   56.9723   79.4432 C.ar    1  UNL1        0.0002
     12 C          -2.1461   58.3320   79.3805 C.ar    1  UNL1        0.0058
     13 C          -3.4522   58.8027   79.4336 C.ar    1  UNL1        0.0667
     14 N          -5.8824   58.2748   79.6145 N.pl3   1  UNL1       -0.3127
     15 H          -6.1373   58.7693   80.4760 H       1  UNL1        0.1522
     16 C         -10.2668   59.7423   77.8827 C.3     1  UNL1        0.0307
     17 C          -9.0844   58.8199   77.7693 C.ar    1  UNL1       -0.0246
     18 C          -9.1660   57.6465   77.0126 C.ar    1  UNL1       -0.0045
     19 C          -8.1253   56.7225   77.0485 C.ar    1  UNL1        0.0009
     20 C          -7.0457   56.9218   77.9144 C.ar    1  UNL1        0.0143
     21 C          -6.9453   58.0822   78.7029 C.ar    1  UNL1        0.0440
     22 C          -7.9168   59.0872   78.5255 C.ar    1  UNL1       -0.0124
     23 C          -7.7132   60.4838   79.0560 C.3     1  UNL1        0.0320
     24 C           0.5801   61.4495   76.8251 C.3     1  UNL1        0.0001
     25 C           0.9522   61.0993   78.2653 C.3     1  UNL1        0.0001
     26 C           1.0845   59.6008   78.5313 C.3     1  UNL1        0.0017
     27 C           1.5557   58.8154   77.3055 C.3     1  UNL1        0.0212
     28 C           1.3758   57.2996   77.4545 C.3     1  UNL1        0.0870
     29 N           0.7166   56.7209   76.2932 N.pl3   1  UNL1       -0.3328
     30 H           1.3812   56.2579   75.6770 H       1  UNL1        0.1468
     31 C          -0.5309   56.0646   76.2574 C.ar    1  UNL1        0.0431
     32 C          -0.7762   54.7143   76.6240 C.ar    1  UNL1        0.0045
     33 C          -2.0913   54.2259   76.4843 C.ar    1  UNL1        0.0561
     34 N          -3.1424   54.9859   76.1147 N.ar    1  UNL1       -0.2499
     35 C          -2.9496   56.2842   75.9152 C.ar    1  UNL1        0.0829
     36 C          -4.0943   57.0465   75.7589 C.ar    1  UNL1        0.0305
     37 C          -4.0248   58.4303   75.6973 C.ar    1  UNL1        0.0592
     38 CL         -5.4664   59.3634   75.8805 Cl      1  UNL1       -0.0822
     39 C          -2.7954   59.0608   75.6067 C.ar    1  UNL1        0.0115
     40 C          -1.6319   58.2966   75.7277 C.ar    1  UNL1        0.0036
     41 C          -1.6767   56.8908   75.9482 C.ar    1  UNL1        0.0305
     42 C          -2.4828   52.8087   76.8238 C.3     1  UNL1        0.0455
     43 C          -1.3103   51.8462   76.8171 C.3     1  UNL1        0.0066
     44 C          -0.2162   52.4301   77.6885 C.3     1  UNL1        0.0052
     45 C           0.2906   53.7444   77.0871 C.3     1  UNL1        0.0288
@<TRIPOS>BOND
     1    16    17    1
     2    17    18   ar
     3    17    22   ar
     4    18    19   ar
     5    19    20   ar
     6    20    21   ar
     7    21    14    1
     8    21    22   ar
     9    14     8    1
    10    14    15    1
    11     8     9   ar
    12     8    13   ar
    13     9    10   ar
    14    10    11   ar
    15    11    12   ar
    16    12    13   ar
    17    13     4    1
    18     4     5    2
    19     4     6   am
    20     6     3    1
    21     6     7    1
    22     3     2    1
    23     2     1    1
    24     1    24    1
    25    24    25    1
    26    25    26    1
    27    26    27    1
    28    27    28    1
    29    28    29    1
    30    29    31    1
    31    29    30    1
    32    31    32   ar
    33    31    41   ar
    34    32    33   ar
    35    32    45    1
    36    33    34   ar
    37    33    42    1
    38    34    35   ar
    39    35    36   ar
    40    35    41   ar
    41    36    37   ar
    42    37    38    1
    43    37    39   ar
    44    39    40   ar
    45    40    41   ar
    46    42    43    1
    47    43    44    1
    48    44    45    1
    49    22    23    1
#	Name:			CHEMBL2393228
#	Creating user name:	trannguyen
#	Creation time:		Tue Feb  8 17:54:08 2022


#	Modifying user name:	trannguyen
#	Modification time:	Tue Feb  8 17:54:08 2022

@<TRIPOS>MOLECULE
CHEMBL2393228
 46 50 0 0 0
SMALL
GASTEIGER

@<TRIPOS>ATOM
      1 C          -3.3561   59.2347   76.4537 C.3     1  UNL1        0.0017
      2 C          -3.1285   58.2943   75.2640 C.3     1  UNL1        0.0213
      3 C          -3.7830   56.9149   75.4739 C.3     1  UNL1        0.0897
      4 C          -1.7036   55.4975   75.5148 C.2     1  UNL1        0.2471
      5 O          -1.2362   55.8927   74.4506 O.2     1  UNL1       -0.2701
      6 N          -2.8616   55.9687   76.0898 N.am    1  UNL1       -0.3008
      7 H          -3.0367   55.7509   77.0579 H       1  UNL1        0.1497
      8 C           0.3244   54.7928   76.8012 C.ar    1  UNL1        0.0527
      9 C           0.9850   53.8341   77.5884 C.ar    1  UNL1        0.0148
     10 C           0.4260   52.5799   77.8381 C.ar    1  UNL1        0.0013
     11 C          -0.8141   52.2576   77.3052 C.ar    1  UNL1        0.0002
     12 C          -1.4955   53.1937   76.5285 C.ar    1  UNL1        0.0058
     13 C          -0.9530   54.4730   76.2996 C.ar    1  UNL1        0.0667
     14 N           0.9051   56.0717   76.5937 N.pl3   1  UNL1       -0.3127
     15 H           1.7413   56.0355   75.9942 H       1  UNL1        0.1522
     16 C           2.1131   60.8248   77.7062 C.3     1  UNL1        0.0307
     17 C           1.5680   59.4783   78.0853 C.ar    1  UNL1       -0.0246
     18 C           1.2860   59.2193   79.4344 C.ar    1  UNL1       -0.0045
     19 C           0.8599   57.9600   79.8360 C.ar    1  UNL1        0.0009
     20 C           0.7553   56.9287   78.9000 C.ar    1  UNL1        0.0143
     21 C           0.9879   57.1472   77.5313 C.ar    1  UNL1        0.0440
     22 C           1.3536   58.4501   77.1164 C.ar    1  UNL1       -0.0124
     23 C           1.4520   58.7990   75.6536 C.3     1  UNL1        0.0320
     24 C          -2.1120   59.4607   77.3272 C.3     1  UNL1        0.0001
     25 C          -1.5490   60.8583   77.0374 C.3     1  UNL1        0.0000
     26 C          -1.5924   61.8118   78.2326 C.3     1  UNL1        0.0001
     27 C          -1.9026   61.0818   79.5487 C.3     1  UNL1        0.0017
     28 C          -3.1312   61.6250   80.2961 C.3     1  UNL1        0.0212
     29 C          -4.4151   61.3166   79.5170 C.3     1  UNL1        0.0870
     30 N          -5.1009   60.1582   80.0851 N.pl3   1  UNL1       -0.3328
     31 H          -4.7860   59.9682   81.0240 H       1  UNL1        0.1468
     32 C          -5.3771   58.9414   79.4137 C.ar    1  UNL1        0.0431
     33 C          -6.4867   58.6937   78.5655 C.ar    1  UNL1        0.0045
     34 C          -6.6494   57.3912   78.0596 C.ar    1  UNL1        0.0561
     35 N          -5.7736   56.3855   78.2735 N.ar    1  UNL1       -0.2499
     36 C          -4.7240   56.6012   79.0613 C.ar    1  UNL1        0.0829
     37 C          -3.8554   55.5357   79.2453 C.ar    1  UNL1        0.0305
     38 C          -2.7471   55.6409   80.0753 C.ar    1  UNL1        0.0592
     39 CL         -1.6800   54.3045   80.2629 Cl      1  UNL1       -0.0822
     40 C          -2.5059   56.8204   80.7591 C.ar    1  UNL1        0.0115
     41 C          -3.3704   57.9035   80.5781 C.ar    1  UNL1        0.0036
     42 C          -4.4852   57.8393   79.6972 C.ar    1  UNL1        0.0305
     43 C          -7.8124   57.0052   77.1796 C.3     1  UNL1        0.0455
     44 C          -9.0087   57.9285   77.3445 C.3     1  UNL1        0.0066
     45 C          -8.5405   59.3516   77.1270 C.3     1  UNL1        0.0052
     46 C          -7.5047   59.7426   78.1801 C.3     1  UNL1        0.0288
@<TRIPOS>BOND
     1    16    17    1
     2    17    18   ar
     3    17    22   ar
     4    18    19   ar
     5    19    20   ar
     6    20    21   ar
     7    21    14    1
     8    21    22   ar
     9    14     8    1
    10    14    15    1
    11     8     9   ar
    12     8    13   ar
    13     9    10   ar
    14    10    11   ar
    15    11    12   ar
    16    12    13   ar
    17    13     4    1
    18     4     5    2
    19     4     6   am
    20     6     3    1
    21     6     7    1
    22     3     2    1
    23     2     1    1
    24     1    24    1
    25    24    25    1
    26    25    26    1
    27    26    27    1
    28    27    28    1
    29    28    29    1
    30    29    30    1
    31    30    32    1
    32    30    31    1
    33    32    33   ar
    34    32    42   ar
    35    33    34   ar
    36    33    46    1
    37    34    35   ar
    38    34    43    1
    39    35    36   ar
    40    36    37   ar
    41    36    42   ar
    42    37    38   ar
    43    38    39    1
    44    38    40   ar
    45    40    41   ar
    46    41    42   ar
    47    43    44    1
    48    44    45    1
    49    45    46    1
    50    22    23    1
#	Name:			CHEMBL2393229
#	Creating user name:	trannguyen
#	Creation time:		Tue Feb  8 17:54:08 2022


#	Modifying user name:	trannguyen
#	Modification time:	Tue Feb  8 17:54:08 2022

@<TRIPOS>MOLECULE
CHEMBL2393229
 47 51 0 0 0
SMALL
GASTEIGER

@<TRIPOS>ATOM
      1 C           2.4294   61.6285   68.3952 C.3     1  UNL1        0.0001
      2 C           2.7243   60.4627   69.3422 C.3     1  UNL1        0.0017
      3 C           1.9273   60.5172   70.6488 C.3     1  UNL1        0.0213
      4 C           2.2420   59.3760   71.6161 C.3     1  UNL1        0.0897
      5 C           2.3647   59.0936   74.0897 C.2     1  UNL1        0.2471
      6 O           3.1835   58.1719   74.0390 O.2     1  UNL1       -0.2701
      7 N           1.8748   59.7404   72.9724 N.am    1  UNL1       -0.3008
      8 H           1.4045   60.6287   73.0888 H       1  UNL1        0.1497
      9 C           0.6872   59.0137   76.0102 C.ar    1  UNL1        0.0527
     10 C           0.3273   59.5173   77.2749 C.ar    1  UNL1        0.0148
     11 C           1.0070   60.5796   77.8829 C.ar    1  UNL1        0.0013
     12 C           2.1209   61.1311   77.2702 C.ar    1  UNL1        0.0002
     13 C           2.5437   60.6312   76.0437 C.ar    1  UNL1        0.0058
     14 C           1.8518   59.5718   75.4133 C.ar    1  UNL1        0.0667
     15 N          -0.0047   57.9194   75.4102 N.pl3   1  UNL1       -0.3127
     16 H           0.3275   57.7424   74.4549 H       1  UNL1        0.1522
     17 C          -2.7318   54.0742   77.2343 C.3     1  UNL1        0.0307
     18 C          -2.5814   55.4674   76.6847 C.ar    1  UNL1       -0.0246
     19 C          -3.7549   56.1927   76.4487 C.ar    1  UNL1       -0.0045
     20 C          -3.6965   57.4163   75.8003 C.ar    1  UNL1        0.0009
     21 C          -2.4678   57.9346   75.3944 C.ar    1  UNL1        0.0143
     22 C          -1.2538   57.2931   75.6813 C.ar    1  UNL1        0.0440
     23 C          -1.3181   56.0252   76.3254 C.ar    1  UNL1       -0.0124
     24 C          -0.0698   55.2188   76.5959 C.3     1  UNL1        0.0320
     25 C           3.6603   62.0877   67.6025 C.3     1  UNL1        0.0000
     26 C           3.7077   63.5835   67.2642 C.3     1  UNL1        0.0000
     27 C           3.3707   63.8592   65.7984 C.3     1  UNL1        0.0001
     28 C           3.4670   65.3420   65.4424 C.3     1  UNL1        0.0017
     29 C           2.0674   65.9567   65.3179 C.3     1  UNL1        0.0212
     30 C           1.8248   66.9989   66.4074 C.3     1  UNL1        0.0870
     31 N           2.1204   68.3490   65.9487 N.pl3   1  UNL1       -0.3328
     32 H           1.2964   68.7402   65.4959 H       1  UNL1        0.1468
     33 C           3.2733   68.8643   65.3274 C.ar    1  UNL1        0.0431
     34 C           3.5901   68.7882   63.9489 C.ar    1  UNL1        0.0045
     35 C           4.8351   69.2978   63.5370 C.ar    1  UNL1        0.0561
     36 N           5.6902   69.9520   64.3516 N.ar    1  UNL1       -0.2499
     37 C           5.4024   70.0445   65.6452 C.ar    1  UNL1        0.0829
     38 C           6.3010   70.7467   66.4349 C.ar    1  UNL1        0.0305
     39 C           6.1269   70.8514   67.8087 C.ar    1  UNL1        0.0592
     40 CL          7.2411   71.7612   68.7516 Cl      1  UNL1       -0.0822
     41 C           5.0603   70.2147   68.4195 C.ar    1  UNL1        0.0115
     42 C           4.1357   69.5257   67.6299 C.ar    1  UNL1        0.0036
     43 C           4.2505   69.4633   66.2122 C.ar    1  UNL1        0.0305
     44 C           5.3230   69.1947   62.1140 C.3     1  UNL1        0.0455
     45 C           4.6241   68.0968   61.3310 C.3     1  UNL1        0.0066
     46 C           3.1303   68.3194   61.4406 C.3     1  UNL1        0.0052
     47 C           2.6723   68.2114   62.8959 C.3     1  UNL1        0.0288
@<TRIPOS>BOND
     1    17    18    1
     2    18    19   ar
     3    18    23   ar
     4    19    20   ar
     5    20    21   ar
     6    21    22   ar
     7    22    15    1
     8    22    23   ar
     9    15     9    1
    10    15    16    1
    11     9    10   ar
    12     9    14   ar
    13    10    11   ar
    14    11    12   ar
    15    12    13   ar
    16    13    14   ar
    17    14     5    1
    18     5     6    2
    19     5     7   am
    20     7     4    1
    21     7     8    1
    22     4     3    1
    23     3     2    1
    24     2     1    1
    25     1    25    1
    26    25    26    1
    27    26    27    1
    28    27    28    1
    29    28    29    1
    30    29    30    1
    31    30    31    1
    32    31    33    1
    33    31    32    1
    34    33    34   ar
    35    33    43   ar
    36    34    35   ar
    37    34    47    1
    38    35    36   ar
    39    35    44    1
    40    36    37   ar
    41    37    38   ar
    42    37    43   ar
    43    38    39   ar
    44    39    40    1
    45    39    41   ar
    46    41    42   ar
    47    42    43   ar
    48    44    45    1
    49    45    46    1
    50    46    47    1
    51    23    24    1
#	Name:			CHEMBL241536
#	Creating user name:	trannguyen
#	Creation time:		Tue Feb  8 17:54:08 2022


#	Modifying user name:	trannguyen
#	Modification time:	Tue Feb  8 17:54:08 2022

@<TRIPOS>MOLECULE
CHEMBL241536
 37 41 0 0 0
SMALL
GASTEIGER

@<TRIPOS>ATOM
      1 C          -1.0560   53.2589   78.2374 C.3     1  UNL1        0.0420
      2 C          -1.6043   53.1029   79.6772 C.3     1  UNL1        0.1118
      3 O          -2.2643   51.8461   79.8155 O.3     1  UNL1       -0.3844
      4 C          -2.6227   54.2135   79.9007 C.3     1  UNL1        0.0293
      5 C          -3.1608   54.6306   78.5042 C.3     1  UNL1        0.0033
      6 C          -4.1899   53.5700   78.0321 C.3     1  UNL1        0.0001
      7 C          -3.8156   56.1022   78.6473 C.3     1  UNL1        0.0073
      8 C          -5.3642   56.1663   78.8385 C.3     1  UNL1        0.0008
      9 C          -6.2745   56.9374   77.8601 C.3     1  UNL1        0.0042
     10 C          -6.1604   58.4842   77.9508 C.3     1  UNL1        0.0233
     11 C          -4.9197   58.8483   77.1725 C.2     1  UNL1       -0.0481
     12 C          -4.9674   59.4114   75.9537 C.2     1  UNL1       -0.0326
     13 C          -6.2618   59.8607   75.3544 C.3     1  UNL1        0.0499
     14 C          -7.1746   60.4097   76.4609 C.3     1  UNL1        0.1140
     15 N          -6.5459   61.6400   76.9710 N.2     1  UNL1       -0.2432
     16 C          -6.4155   61.8520   78.2274 C.2     1  UNL1        0.1946
     17 O          -6.9646   61.0897   79.1990 O.2     1  UNL1       -0.4635
     18 C          -7.9330   60.1315   78.7726 C.3     1  UNL1        0.2087
     19 C          -7.4495   59.3374   77.5485 C.3     1  UNL1        0.0649
     20 C          -8.6381   58.4677   77.0847 C.3     1  UNL1        0.0060
     21 C          -3.6168   58.5731   77.8522 C.3     1  UNL1        0.0290
     22 C          -3.1666   57.1198   77.6904 C.3     1  UNL1        0.0616
     23 C          -1.6907   57.0851   78.0138 C.2     1  UNL1        0.1506
     24 O          -1.0707   58.0568   78.4678 O.2     1  UNL1       -0.2961
     25 C          -0.9516   55.8091   77.7716 C.3     1  UNL1        0.0646
     26 C          -1.8175   54.5374   77.6420 C.3     1  UNL1        0.0105
     27 C          -2.1130   54.2815   76.1393 C.3     1  UNL1        0.0006
     28 H          -1.5590   51.1750   79.8302 H       1  UNL1        0.2103
     29 C          -5.6278   63.0481   78.7717 C.3     1  UNL1        0.0681
     30 C          -5.7704   64.2200   77.7932 C.3     1  UNL1        0.0092
     31 C          -6.1513   63.4618   80.1573 C.3     1  UNL1        0.0092
     32 C          -4.1393   62.6807   78.9124 C.3     1  UNL1        0.0092
     33 C           1.0972   52.1795   77.2665 C.3     1  UNL1        0.0174
     34 C           0.5231   53.2400   78.2200 C.3     1  UNL1        0.0599
     35 N           1.1039   53.1542   79.5890 N.3     1  UNL1       -0.2715
     36 C           1.9989   52.0196   79.8076 C.3     1  UNL1        0.0896
     37 C           1.7809   54.3993   79.9794 C.3     1  UNL1        0.0896
@<TRIPOS>BOND
     1    33    34    1
     2    34    35    1
     3    34     1    1
     4     1     2    1
     5     1    26    1
     6     2     4    1
     7     2     3    1
     8     3    28    1
     9     4     5    1
    10     5     7    1
    11     5    26    1
    12     5     6    1
    13     7     8    1
    14     7    22    1
    15     8     9    1
    16     9    10    1
    17    10    11    1
    18    10    19    1
    19    11    12    2
    20    11    21    1
    21    12    13    1
    22    13    14    1
    23    14    15    1
    24    14    19    1
    25    15    16    2
    26    16    17    1
    27    16    29    1
    28    29    30    1
    29    29    31    1
    30    29    32    1
    31    17    18    1
    32    18    19    1
    33    19    20    1
    34    21    22    1
    35    22    23    1
    36    23    25    1
    37    23    24    2
    38    25    26    1
    39    26    27    1
    40    35    36    1
    41    35    37    1
#	Name:			CHEMBL2448118
#	Creating user name:	trannguyen
#	Creation time:		Tue Feb  8 17:54:08 2022


#	Modifying user name:	trannguyen
#	Modification time:	Tue Feb  8 17:54:08 2022

@<TRIPOS>MOLECULE
CHEMBL2448118
 28 31 0 0 0
SMALL
GASTEIGER

@<TRIPOS>ATOM
      1 C          -8.1443   57.3709   77.0476 C.ar    1  UNL1        0.1721
      2 C          -6.6346   57.1766   77.2319 C.ar    1  UNL1        0.0359
      3 C          -5.2732   57.6888   77.0395 C.ar    1  UNL1       -0.0158
      4 C          -5.0073   58.9123   76.5403 C.ar    1  UNL1        0.0340
      5 C          -5.9989   59.7756   76.1970 C.ar    1  UNL1        0.0426
      6 C          -7.4372   59.2534   76.3183 C.ar    1  UNL1        0.1725
      7 C          -3.6073   59.0668   76.3700 C.2     1  UNL1        0.1727
      8 O          -3.0289   60.1339   76.2604 O.2     1  UNL1       -0.2913
      9 C          -3.0062   57.7248   76.2824 C.3     1  UNL1        0.0663
     10 C          -4.0005   56.9658   77.2812 C.3     1  UNL1        0.0342
     11 C          -8.3639   60.6197   79.0808 C.3     1  UNL1        0.2526
     12 O          -8.0263   58.7325   76.7828 O.3     1  UNL1       -0.4684
     13 O          -8.2977   60.2006   75.8046 O.3     1  UNL1       -0.4684
     14 C          -8.1368   61.5695   75.6277 C.3     1  UNL1        0.2526
     15 C          -1.4451   57.7540   76.0470 C.3     1  UNL1        0.0081
     16 C          -0.7657   57.8408   77.4596 C.3     1  UNL1        0.0032
     17 C           0.1638   56.7227   78.0029 C.3     1  UNL1        0.0174
     18 C           1.6552   56.8643   77.6282 C.3     1  UNL1        0.0724
     19 N           2.1690   58.2438   77.8464 N.3     1  UNL1       -0.2690
     20 C           1.3400   59.1714   77.0601 C.3     1  UNL1        0.0724
     21 C          -0.0658   59.1897   77.6329 C.3     1  UNL1        0.0174
     22 C           2.3518   58.6066   79.2902 C.3     1  UNL1        0.0991
     23 C           3.5616   59.5119   79.5763 C.ar    1  UNL1       -0.0061
     24 C           4.7192   58.9763   80.1763 C.ar    1  UNL1       -0.0029
     25 C           5.8328   59.7891   80.4296 C.ar    1  UNL1       -0.0003
     26 C           5.8139   61.1402   80.0789 C.ar    1  UNL1       -0.0000
     27 C           4.6746   61.6897   79.5006 C.ar    1  UNL1       -0.0003
     28 C           3.5537   60.8920   79.2607 C.ar    1  UNL1       -0.0029
@<TRIPOS>BOND
     1    11    12    1
     2    12     1    1
     3     1     2   ar
     4     1     6   ar
     5     2     3   ar
     6     3     4   ar
     7     3    10    1
     8     4     5   ar
     9     4     7    1
    10     5     6   ar
    11     6    13    1
    12    13    14    1
    13     7     8    2
    14     7     9    1
    15     9    15    1
    16     9    10    1
    17    15    16    1
    18    16    17    1
    19    16    21    1
    20    17    18    1
    21    18    19    1
    22    19    22    1
    23    19    20    1
    24    22    23    1
    25    23    24   ar
    26    23    28   ar
    27    24    25   ar
    28    25    26   ar
    29    26    27   ar
    30    27    28   ar
    31    20    21    1
#	Name:			CHEMBL245079
#	Creating user name:	trannguyen
#	Creation time:		Tue Feb  8 17:54:08 2022


#	Modifying user name:	trannguyen
#	Modification time:	Tue Feb  8 17:54:08 2022

@<TRIPOS>MOLECULE
CHEMBL245079
 21 24 0 0 0
SMALL
GASTEIGER

@<TRIPOS>ATOM
      1 C           4.8213   64.8025   63.9284 C.3     1  UNL1        0.0261
      2 C           4.7443   66.3019   63.9404 C.2     1  UNL1       -0.0465
      3 C           5.8390   67.0677   63.7972 C.2     1  UNL1       -0.0344
      4 C           5.7754   68.5724   63.6369 C.3     1  UNL1        0.0288
      5 C           6.1301   69.2237   64.9822 C.3     1  UNL1        0.0477
      6 C           4.9442   69.3497   65.9054 C.ar    1  UNL1        0.0336
      7 N           5.2049   69.9441   67.1222 N.ar    1  UNL1       -0.3248
      8 H           6.1519   70.2054   67.3674 H       1  UNL1        0.1686
      9 C           4.2494   70.3099   68.0358 C.ar    1  UNL1        0.2575
     10 O           4.5090   70.9007   69.0650 O.2     1  UNL1       -0.2672
     11 C           2.8599   69.9468   67.6706 C.ar    1  UNL1        0.0603
     12 C           2.6161   69.2957   66.5226 C.ar    1  UNL1        0.0030
     13 C           3.6800   68.9984   65.5625 C.ar    1  UNL1        0.0025
     14 C           3.3227   68.4852   64.1323 C.3     1  UNL1        0.0662
     15 C           3.3603   66.9135   64.0241 C.3     1  UNL1        0.0403
     16 N           1.9988   69.0256   63.7369 N.3     1  UNL1       -0.2961
     17 C           1.5737   68.6405   62.3983 C.3     1  UNL1        0.0687
     18 C           2.6154   68.8219   61.2934 C.3     1  UNL1        0.0172
     19 C           4.0915   68.7383   61.6958 C.3     1  UNL1        0.0034
     20 C           4.3801   69.0733   63.1662 C.3     1  UNL1        0.0219
     21 H           2.0392   70.0430   63.7963 H       1  UNL1        0.1235
@<TRIPOS>BOND
     1     1     2    1
     2     2     3    2
     3     2    15    1
     4     3     4    1
     5     4     5    1
     6     4    20    1
     7     5     6    1
     8     6     7   ar
     9     6    13   ar
    10     7     9   ar
    11     7     8    1
    12     9    11   ar
    13     9    10    2
    14    11    12   ar
    15    12    13   ar
    16    14    13    1
    17    14    15    1
    18    14    16    1
    19    14    20    1
    20    16    17    1
    21    16    21    1
    22    17    18    1
    23    18    19    1
    24    19    20    1
#	Name:			CHEMBL266045
#	Creating user name:	trannguyen
#	Creation time:		Tue Feb  8 17:54:08 2022


#	Modifying user name:	trannguyen
#	Modification time:	Tue Feb  8 17:54:08 2022

@<TRIPOS>MOLECULE
CHEMBL266045
 38 41 0 0 0
SMALL
GASTEIGER

@<TRIPOS>ATOM
      1 C           4.1957   68.8639   61.1671 C.2     1  UNL1        0.2396
      2 O           3.0841   68.9172   60.6098 O.2     1  UNL1       -0.2735
      3 N           4.6986   67.6990   61.7072 N.am    1  UNL1       -0.2359
      4 H           5.5019   67.7114   62.3338 H       1  UNL1        0.1727
      5 N           3.8615   66.5583   61.8173 N.pl3   1  UNL1       -0.2635
      6 H           2.9904   66.6942   61.2830 H       1  UNL1        0.1700
      7 C           3.5557   66.1903   63.1732 C.ar    1  UNL1        0.0597
      8 C           3.9947   64.9688   63.7431 C.ar    1  UNL1        0.0060
      9 C           3.5839   64.6812   65.0450 C.ar    1  UNL1        0.0562
     10 N           2.9086   65.5586   65.8189 N.ar    1  UNL1       -0.2499
     11 C           2.5751   66.7537   65.3204 C.ar    1  UNL1        0.0821
     12 C           1.9086   67.6308   66.1673 C.ar    1  UNL1        0.0191
     13 C           1.4897   68.8921   65.7476 C.ar    1  UNL1        0.0015
     14 C           1.7341   69.2865   64.4409 C.ar    1  UNL1        0.0001
     15 C           2.4083   68.4199   63.5712 C.ar    1  UNL1        0.0028
     16 C           2.8576   67.1375   63.9938 C.ar    1  UNL1        0.0319
     17 C           3.8912   63.3595   65.7045 C.3     1  UNL1        0.0455
     18 C           4.3322   62.2760   64.7265 C.3     1  UNL1        0.0066
     19 C           5.4164   62.8310   63.8203 C.3     1  UNL1        0.0052
     20 C           4.8234   63.9582   62.9880 C.3     1  UNL1        0.0289
     21 C           5.0506   70.0930   61.4068 C.3     1  UNL1        0.1078
     22 C           6.1917   69.7840   62.3813 C.3     1  UNL1        0.0993
     23 C           5.8067   69.2247   64.7871 C.2     1  UNL1        0.2461
     24 O           5.8827   68.0319   64.6288 O.2     1  UNL1       -0.2701
     25 N           5.9266   70.1483   63.7580 N.am    1  UNL1       -0.3004
     26 H           6.0474   71.1184   63.9958 H       1  UNL1        0.1498
     27 C           4.1192   70.1829   68.0599 C.ar    1  UNL1        0.1756
     28 C           4.3242   69.6541   66.7724 C.ar    1  UNL1        0.0448
     29 C           5.5680   69.8008   66.1566 C.ar    1  UNL1        0.0596
     30 C           6.5743   70.5168   66.7962 C.ar    1  UNL1        0.0448
     31 C           6.4141   71.0272   68.0897 C.ar    1  UNL1        0.1756
     32 C           5.1727   70.8502   68.7393 C.ar    1  UNL1        0.2061
     33 C           2.5478   68.7498   69.1625 C.3     1  UNL1        0.2526
     34 O           2.9278   70.0558   68.7368 O.3     1  UNL1       -0.4683
     35 O           7.4295   71.7009   68.7201 O.3     1  UNL1       -0.4683
     36 C           8.3311   70.9635   69.5485 C.3     1  UNL1        0.2526
     37 O           4.8678   71.2231   70.0303 O.3     1  UNL1       -0.4654
     38 C           5.5294   70.5565   71.0947 C.3     1  UNL1        0.2528
@<TRIPOS>BOND
     1    33    34    1
     2    34    27    1
     3    27    28   ar
     4    27    32   ar
     5    28    29   ar
     6    29    23    1
     7    29    30   ar
     8    23    24    2
     9    23    25   am
    10    25    22    1
    11    25    26    1
    12    22    21    1
    13    21     1    1
    14     1     2    2
    15     1     3   am
    16     3     5    1
    17     3     4    1
    18     5     7    1
    19     5     6    1
    20     7     8   ar
    21     7    16   ar
    22     8     9   ar
    23     8    20    1
    24     9    10   ar
    25     9    17    1
    26    10    11   ar
    27    11    12   ar
    28    11    16   ar
    29    12    13   ar
    30    13    14   ar
    31    14    15   ar
    32    15    16   ar
    33    17    18    1
    34    18    19    1
    35    19    20    1
    36    30    31   ar
    37    31    35    1
    38    31    32   ar
    39    35    36    1
    40    32    37    1
    41    37    38    1
#	Name:			CHEMBL278020
#	Creating user name:	trannguyen
#	Creation time:		Tue Feb  8 17:54:08 2022


#	Modifying user name:	trannguyen
#	Modification time:	Tue Feb  8 17:54:08 2022

@<TRIPOS>MOLECULE
CHEMBL278020
 16 16 0 0 0
SMALL
GASTEIGER

@<TRIPOS>ATOM
      1 C          -0.8122   56.3492   76.7346 C.ar    1  UNL1        0.1512
      2 C          -1.8709   56.9201   76.0341 C.ar    1  UNL1        0.0377
      3 C          -2.8195   56.0897   75.4507 C.ar    1  UNL1        0.0044
      4 C          -2.7037   54.6998   75.5711 C.ar    1  UNL1        0.0134
      5 C          -1.6408   54.1194   76.2810 C.ar    1  UNL1        0.0374
      6 C          -0.7027   54.9666   76.8746 C.ar    1  UNL1        0.0508
      7 N          -1.4787   52.6169   76.4332 N.pl3   1  UNL1       -0.3511
      8 C          -2.5094   52.0361   77.3882 C.3     1  UNL1        0.0960
      9 C          -0.0882   52.3139   76.9860 C.3     1  UNL1        0.0960
     10 C          -1.6588   51.9577   75.0653 C.3     1  UNL1        0.0960
     11 O           0.0815   57.2505   77.3439 O.3     1  UNL1       -0.4101
     12 C          -0.1630   59.9201   77.3605 C.3     1  UNL1        0.1184
     13 N           1.0188   59.2908   76.7989 N.am    1  UNL1       -0.2422
     14 C           1.8729   60.1158   75.9672 C.3     1  UNL1        0.1184
     15 C           1.0840   57.9162   76.6279 C.2     1  UNL1        0.4095
     16 O           1.9124   57.3535   75.9272 O.2     1  UNL1       -0.2258
@<TRIPOS>BOND
     1    12    13    1
     2    13    14    1
     3    13    15   am
     4    15    16    2
     5    15    11    1
     6    11     1    1
     7     1     2   ar
     8     1     6   ar
     9     2     3   ar
    10     3     4   ar
    11     4     5   ar
    12     5     7    1
    13     5     6   ar
    14     7     8    1
    15     7     9    1
    16     7    10    1
#	Name:			CHEMBL296834
#	Creating user name:	trannguyen
#	Creation time:		Tue Feb  8 17:54:08 2022


#	Modifying user name:	trannguyen
#	Modification time:	Tue Feb  8 17:54:08 2022

@<TRIPOS>MOLECULE
CHEMBL296834
 20 20 0 0 0
SMALL
GASTEIGER

@<TRIPOS>ATOM
      1 C           4.7593   68.6042   64.2928 C.2     1  UNL1        0.2267
      2 O           3.9205   67.8252   64.7469 O.2     1  UNL1       -0.2748
      3 N           5.3722   69.6256   64.9911 N.am    1  UNL1       -0.2839
      4 H           6.0133   70.2301   64.4871 H       1  UNL1        0.1549
      5 C           5.1483   69.9285   66.3592 C.ar    1  UNL1        0.0505
      6 C           3.8829   69.8759   66.9525 C.ar    1  UNL1        0.0147
      7 C           3.6880   70.2084   68.2920 C.ar    1  UNL1        0.0015
      8 C           4.7681   70.5914   69.0727 C.ar    1  UNL1        0.0065
      9 C           6.0428   70.6503   68.5100 C.ar    1  UNL1        0.0767
     10 C           6.2404   70.3020   67.1567 C.ar    1  UNL1        0.0211
     11 C           7.2127   71.0411   69.3166 C.2     1  UNL1        0.3381
     12 O           8.0203   71.8818   68.9115 O.2     1  UNL1       -0.2451
     13 O           7.3101   70.4656   70.5310 O.3     1  UNL1       -0.4771
     14 H           6.5655   69.9135   70.7882 H       1  UNL1        0.2954
     15 C           5.1940   68.4538   62.8505 C.3     1  UNL1        0.0970
     16 C           4.1432   67.6742   62.0520 C.3     1  UNL1        0.1189
     17 O           2.8251   69.1901   60.7212 O.2     1  UNL1       -0.2503
     18 C           2.9014   68.4715   61.7090 C.2     1  UNL1        0.3143
     19 O           1.8862   68.3709   62.5907 O.3     1  UNL1       -0.4802
     20 H           2.0764   67.7799   63.3607 H       1  UNL1        0.2951
@<TRIPOS>BOND
     1    17    18    2
     2    18    19    1
     3    18    16    1
     4    19    20    1
     5    16    15    1
     6    15     1    1
     7     1     2    2
     8     1     3   am
     9     3     5    1
    10     3     4    1
    11     5     6   ar
    12     5    10   ar
    13     6     7   ar
    14     7     8   ar
    15     8     9   ar
    16     9    11    1
    17     9    10   ar
    18    11    12    2
    19    11    13    1
    20    13    14    1
#	Name:			CHEMBL315634
#	Creating user name:	trannguyen
#	Creation time:		Tue Feb  8 17:54:08 2022


#	Modifying user name:	trannguyen
#	Modification time:	Tue Feb  8 17:54:08 2022

@<TRIPOS>MOLECULE
CHEMBL315634
 14 14 0 0 0
SMALL
GASTEIGER

@<TRIPOS>ATOM
      1 C           4.6979   69.4118   64.9040 C.ar    1  UNL1       -0.0221
      2 C           3.3821   68.9299   64.8963 C.ar    1  UNL1       -0.0043
      3 C           2.6073   68.9729   66.0547 C.ar    1  UNL1       -0.0002
      4 C           3.1374   69.5063   67.2278 C.ar    1  UNL1        0.0031
      5 C           4.4474   70.0059   67.2526 C.ar    1  UNL1        0.0428
      6 C           5.2305   69.9380   66.0926 C.ar    1  UNL1       -0.0011
      7 C           4.7188   68.9371   62.4368 C.3     1  UNL1        0.0050
      8 C           5.5388   69.3405   63.6528 C.3     1  UNL1        0.0264
      9 C           4.9488   70.5657   68.5381 C.2     1  UNL1        0.2666
     10 O           4.1229   70.7566   69.4378 O.2     1  UNL1       -0.2825
     11 C           6.4237   70.9017   68.6864 C.3     1  UNL1        0.4554
     12 F           6.7586   72.1733   68.3298 F       1  UNL1       -0.1631
     13 F           6.8494   70.7620   69.9741 F       1  UNL1       -0.1631
     14 F           7.2106   70.0821   67.9345 F       1  UNL1       -0.1631
@<TRIPOS>BOND
     1     7     8    1
     2     8     1    1
     3     1     2   ar
     4     1     6   ar
     5     2     3   ar
     6     3     4   ar
     7     4     5   ar
     8     5     9    1
     9     5     6   ar
    10     9    10    2
    11     9    11    1
    12    11    12    1
    13    11    13    1
    14    11    14    1
#	Name:			CHEMBL3215535
#	Creating user name:	trannguyen
#	Creation time:		Tue Feb  8 17:54:08 2022


#	Modifying user name:	trannguyen
#	Modification time:	Tue Feb  8 17:54:08 2022

@<TRIPOS>MOLECULE
CHEMBL3215535
 29 32 0 0 0
SMALL
GASTEIGER

@<TRIPOS>ATOM
      1 C          -1.0235   54.9537   76.2018 C.3     1  UNL1        0.0882
      2 N           0.4021   55.1758   76.1344 N.pl3   1  UNL1       -0.3167
      3 H           0.9675   54.7095   75.4071 H       1  UNL1        0.1482
      4 C           0.9563   56.2437   76.9097 C.ar    1  UNL1        0.1503
      5 C           0.9449   56.2040   78.3180 C.ar    1  UNL1        0.0375
      6 C           1.3789   57.2768   79.0402 C.ar    1  UNL1        0.0238
      7 C           1.7851   58.4424   78.3577 C.ar    1  UNL1        0.1030
      8 N           1.8147   58.4264   76.9940 N.ar    1  UNL1       -0.1468
      9 N           1.4370   57.3492   76.2897 N.ar    1  UNL1       -0.1331
     10 C           2.0628   59.7019   79.0993 C.ar    1  UNL1        0.0194
     11 C           1.2301   60.1511   80.1496 C.ar    1  UNL1        0.0016
     12 C           1.4669   61.3836   80.7593 C.ar    1  UNL1        0.0000
     13 C           2.5228   62.1864   80.3285 C.ar    1  UNL1        0.0000
     14 C           3.3593   61.7488   79.3001 C.ar    1  UNL1        0.0000
     15 C           3.1390   60.5104   78.6940 C.ar    1  UNL1        0.0016
     16 C          -1.9178   55.9468   75.4533 C.3     1  UNL1        0.0213
     17 N          -2.8632   59.0268   77.2456 N.3     1  UNL1       -0.2690
     18 C          -2.0909   57.9714   77.9417 C.3     1  UNL1        0.0724
     19 C          -2.8125   56.6018   77.8052 C.3     1  UNL1        0.0174
     20 C          -3.1766   56.2950   76.3296 C.3     1  UNL1        0.0045
     21 C          -4.0066   57.4942   75.7928 C.3     1  UNL1        0.0174
     22 C          -3.1681   58.7619   75.8430 C.3     1  UNL1        0.0724
     23 C          -3.4547   60.2261   77.8770 C.3     1  UNL1        0.0991
     24 C          -0.6288   63.4010   78.7762 C.ar    1  UNL1       -0.0000
     25 C          -0.4238   62.5466   77.6941 C.ar    1  UNL1       -0.0003
     26 C          -1.3630   61.5554   77.3942 C.ar    1  UNL1       -0.0029
     27 C          -2.5201   61.3929   78.1862 C.ar    1  UNL1       -0.0061
     28 C          -2.7050   62.2590   79.2851 C.ar    1  UNL1       -0.0029
     29 C          -1.7698   63.2616   79.5659 C.ar    1  UNL1       -0.0003
@<TRIPOS>BOND
     1    24    25   ar
     2    24    29   ar
     3    25    26   ar
     4    26    27   ar
     5    27    23    1
     6    27    28   ar
     7    23    17    1
     8    17    18    1
     9    17    22    1
    10    18    19    1
    11    19    20    1
    12    20    16    1
    13    20    21    1
    14    16     1    1
    15     1     2    1
    16     2     4    1
    17     2     3    1
    18     4     5   ar
    19     4     9   ar
    20     5     6   ar
    21     6     7   ar
    22     7    10    1
    23     7     8   ar
    24    10    11   ar
    25    10    15   ar
    26    11    12   ar
    27    12    13   ar
    28    13    14   ar
    29    14    15   ar
    30     8     9   ar
    31    21    22    1
    32    28    29   ar
#	Name:			CHEMBL3217792
#	Creating user name:	trannguyen
#	Creation time:		Tue Feb  8 17:54:08 2022


#	Modifying user name:	trannguyen
#	Modification time:	Tue Feb  8 17:54:08 2022

@<TRIPOS>MOLECULE
CHEMBL3217792
 47 51 0 0 0
SMALL
GASTEIGER

@<TRIPOS>ATOM
      1 C           0.4805   61.6795   76.6350 C.2     1  UNL1        0.2225
      2 O           1.4476   61.9567   75.9318 O.2     1  UNL1       -0.2751
      3 N           0.4682   60.6560   77.5581 N.am    1  UNL1       -0.3043
      4 H          -0.4089   60.4446   78.0188 H       1  UNL1        0.1494
      5 C          -0.8125   62.4631   76.5886 C.3     1  UNL1        0.0868
      6 C          -1.5227   62.5273   77.9354 C.3     1  UNL1        0.0308
      7 C          -1.7354   63.9690   78.4124 C.3     1  UNL1        0.0902
      8 C          -4.0434   64.7582   77.8273 C.2     1  UNL1        0.2471
      9 O          -3.7782   64.9711   76.6349 O.2     1  UNL1       -0.2701
     10 N          -3.1197   64.2785   78.7374 N.am    1  UNL1       -0.3008
     11 H          -3.3319   64.3984   79.7221 H       1  UNL1        0.1497
     12 C          -6.5403   64.2612   77.9480 C.ar    1  UNL1        0.0527
     13 C          -7.7970   64.6358   78.4563 C.ar    1  UNL1        0.0148
     14 C          -7.9494   65.7273   79.3188 C.ar    1  UNL1        0.0013
     15 C          -6.8370   66.4373   79.7488 C.ar    1  UNL1        0.0002
     16 C          -5.5739   66.0757   79.2884 C.ar    1  UNL1        0.0058
     17 C          -5.4174   65.0270   78.3536 C.ar    1  UNL1        0.0667
     18 N          -6.4294   63.1351   77.0936 N.pl3   1  UNL1       -0.3127
     19 H          -6.2494   63.3956   76.1178 H       1  UNL1        0.1522
     20 C          -5.7968   58.4060   78.6302 C.3     1  UNL1        0.0307
     21 C          -6.6152   59.4877   77.9725 C.ar    1  UNL1       -0.0246
     22 C          -7.7984   59.1246   77.3192 C.ar    1  UNL1       -0.0045
     23 C          -8.5417   60.0792   76.6358 C.ar    1  UNL1        0.0009
     24 C          -8.0825   61.3959   76.5523 C.ar    1  UNL1        0.0143
     25 C          -6.9162   61.8078   77.2157 C.ar    1  UNL1        0.0440
     26 C          -6.2236   60.8526   78.0038 C.ar    1  UNL1       -0.0124
     27 C          -5.0969   61.2603   78.9222 C.3     1  UNL1        0.0320
     28 C           1.5649   59.7077   77.6895 C.3     1  UNL1        0.0911
     29 C           1.4004   58.4993   76.7516 C.3     1  UNL1        0.0424
     30 C           1.3123   57.2331   77.5960 C.3     1  UNL1        0.0888
     31 N          -0.0267   56.9178   78.0997 N.pl3   1  UNL1       -0.3328
     32 H          -0.4140   57.7219   78.5845 H       1  UNL1        0.1468
     33 C          -1.0055   56.3584   77.2095 C.ar    1  UNL1        0.0431
     34 C          -1.1516   54.9605   76.9697 C.ar    1  UNL1        0.0045
     35 C          -2.1285   54.5431   76.0551 C.ar    1  UNL1        0.0561
     36 N          -3.0538   55.3669   75.5302 N.ar    1  UNL1       -0.2499
     37 C          -3.0059   56.6613   75.8237 C.ar    1  UNL1        0.0829
     38 C          -4.0186   57.4277   75.2706 C.ar    1  UNL1        0.0305
     39 C          -4.0528   58.8031   75.4351 C.ar    1  UNL1        0.0592
     40 CL         -5.3196   59.7202   74.7183 Cl      1  UNL1       -0.0822
     41 C          -3.0575   59.4320   76.1641 C.ar    1  UNL1        0.0115
     42 C          -2.0491   58.6633   76.7636 C.ar    1  UNL1        0.0036
     43 C          -1.9939   57.2452   76.6246 C.ar    1  UNL1        0.0305
     44 C          -2.2395   53.1157   75.5767 C.3     1  UNL1        0.0455
     45 C          -1.0097   52.2765   75.8858 C.3     1  UNL1        0.0066
     46 C          -0.6819   52.4414   77.3518 C.3     1  UNL1        0.0052
     47 C          -0.3013   53.8912   77.6151 C.3     1  UNL1        0.0288
@<TRIPOS>BOND
     1    20    21    1
     2    21    22   ar
     3    21    26   ar
     4    22    23   ar
     5    23    24   ar
     6    24    25   ar
     7    25    18    1
     8    25    26   ar
     9    18    12    1
    10    18    19    1
    11    12    13   ar
    12    12    17   ar
    13    13    14   ar
    14    14    15   ar
    15    15    16   ar
    16    16    17   ar
    17    17     8    1
    18     8     9    2
    19     8    10   am
    20    10     7    1
    21    10    11    1
    22     7     6    1
    23     6     5    1
    24     5     1    1
    25     1     2    2
    26     1     3   am
    27     3    28    1
    28     3     4    1
    29    28    29    1
    30    29    30    1
    31    30    31    1
    32    31    33    1
    33    31    32    1
    34    33    34   ar
    35    33    43   ar
    36    34    35   ar
    37    34    47    1
    38    35    36   ar
    39    35    44    1
    40    36    37   ar
    41    37    38   ar
    42    37    43   ar
    43    38    39   ar
    44    39    40    1
    45    39    41   ar
    46    41    42   ar
    47    42    43   ar
    48    44    45    1
    49    45    46    1
    50    46    47    1
    51    26    27    1
#	Name:			CHEMBL3221005
#	Creating user name:	trannguyen
#	Creation time:		Tue Feb  8 17:54:08 2022


#	Modifying user name:	trannguyen
#	Modification time:	Tue Feb  8 17:54:08 2022

@<TRIPOS>MOLECULE
CHEMBL3221005
 42 46 0 0 0
SMALL
GASTEIGER

@<TRIPOS>ATOM
      1 C          -1.5906   63.8691   77.2990 C.3     1  UNL1        0.0897
      2 C          -3.9335   64.7259   77.4145 C.2     1  UNL1        0.2471
      3 O          -3.9212   65.1972   76.2930 O.2     1  UNL1       -0.2701
      4 N          -2.8639   64.0446   77.9750 N.am    1  UNL1       -0.3008
      5 H          -2.9647   63.6219   78.8874 H       1  UNL1        0.1497
      6 C          -6.1548   63.8243   78.2709 C.ar    1  UNL1        0.0527
      7 C          -7.2240   63.9640   79.1814 C.ar    1  UNL1        0.0148
      8 C          -7.3736   65.0977   79.9815 C.ar    1  UNL1        0.0013
      9 C          -6.4290   66.1107   79.9244 C.ar    1  UNL1        0.0002
     10 C          -5.3267   65.9792   79.0803 C.ar    1  UNL1        0.0058
     11 C          -5.1586   64.8304   78.2757 C.ar    1  UNL1        0.0667
     12 N          -6.0572   62.6329   77.4914 N.pl3   1  UNL1       -0.3127
     13 H          -6.7982   62.6131   76.7774 H       1  UNL1        0.1522
     14 C          -7.2587   57.7500   77.7080 C.3     1  UNL1        0.0307
     15 C          -6.3909   58.9274   78.0765 C.ar    1  UNL1       -0.0246
     16 C          -5.3619   58.7276   79.0037 C.ar    1  UNL1       -0.0045
     17 C          -4.5915   59.7942   79.4415 C.ar    1  UNL1        0.0009
     18 C          -4.8427   61.0758   78.9584 C.ar    1  UNL1        0.0143
     19 C          -5.8191   61.3104   77.9710 C.ar    1  UNL1        0.0440
     20 C          -6.6107   60.2217   77.5295 C.ar    1  UNL1       -0.0124
     21 C          -7.6811   60.4103   76.4832 C.3     1  UNL1        0.0320
     22 C          -0.9201   62.5803   77.7628 C.3     1  UNL1        0.0213
     23 C           0.0025   61.9883   76.6991 C.3     1  UNL1        0.0018
     24 C           1.1564   61.2241   77.3520 C.3     1  UNL1        0.0018
     25 C           1.4678   59.9233   76.6105 C.3     1  UNL1        0.0212
     26 C           1.6445   58.7583   77.5930 C.3     1  UNL1        0.0870
     27 N           0.3330   58.3138   78.0530 N.pl3   1  UNL1       -0.3328
     28 H          -0.2586   59.1279   78.1804 H       1  UNL1        0.1468
     29 C          -0.4207   57.2625   77.4714 C.ar    1  UNL1        0.0431
     30 C          -0.1292   55.8830   77.6295 C.ar    1  UNL1        0.0045
     31 C          -0.9844   54.9542   77.0126 C.ar    1  UNL1        0.0561
     32 N          -2.1249   55.2905   76.3787 N.ar    1  UNL1       -0.2499
     33 C          -2.4611   56.5779   76.2963 C.ar    1  UNL1        0.0820
     34 C          -3.6711   56.8594   75.6743 C.ar    1  UNL1        0.0191
     35 C          -4.1266   58.1641   75.4989 C.ar    1  UNL1        0.0015
     36 C          -3.3539   59.2127   75.9586 C.ar    1  UNL1        0.0001
     37 C          -2.1434   58.9466   76.6077 C.ar    1  UNL1        0.0027
     38 C          -1.6572   57.6196   76.8046 C.ar    1  UNL1        0.0305
     39 C          -0.7322   53.4664   77.0507 C.3     1  UNL1        0.0455
     40 C           0.7024   53.1064   77.4011 C.3     1  UNL1        0.0066
     41 C           1.0924   53.8552   78.6585 C.3     1  UNL1        0.0052
     42 C           1.0571   55.3614   78.4061 C.3     1  UNL1        0.0288
@<TRIPOS>BOND
     1    14    15    1
     2    15    16   ar
     3    15    20   ar
     4    16    17   ar
     5    17    18   ar
     6    18    19   ar
     7    19    12    1
     8    19    20   ar
     9    12     6    1
    10    12    13    1
    11     6     7   ar
    12     6    11   ar
    13     7     8   ar
    14     8     9   ar
    15     9    10   ar
    16    10    11   ar
    17    11     2    1
    18     2     3    2
    19     2     4   am
    20     4     1    1
    21     4     5    1
    22     1    22    1
    23    22    23    1
    24    23    24    1
    25    24    25    1
    26    25    26    1
    27    26    27    1
    28    27    29    1
    29    27    28    1
    30    29    30   ar
    31    29    38   ar
    32    30    31   ar
    33    30    42    1
    34    31    32   ar
    35    31    39    1
    36    32    33   ar
    37    33    34   ar
    38    33    38   ar
    39    34    35   ar
    40    35    36   ar
    41    36    37   ar
    42    37    38   ar
    43    39    40    1
    44    40    41    1
    45    41    42    1
    46    20    21    1
#	Name:			CHEMBL3221006
#	Creating user name:	trannguyen
#	Creation time:		Tue Feb  8 17:54:08 2022


#	Modifying user name:	trannguyen
#	Modification time:	Tue Feb  8 17:54:08 2022

@<TRIPOS>MOLECULE
CHEMBL3221006
 43 47 0 0 0
SMALL
GASTEIGER

@<TRIPOS>ATOM
      1 C          -1.6545   62.1755   77.6469 C.3     1  UNL1        0.0213
      2 C          -1.9111   63.6573   77.9415 C.3     1  UNL1        0.0897
      3 C          -4.1707   64.6387   77.5440 C.2     1  UNL1        0.2471
      4 O          -3.8656   65.1250   76.4398 O.2     1  UNL1       -0.2701
      5 N          -3.3027   63.8842   78.2991 N.am    1  UNL1       -0.3008
      6 H          -3.6302   63.4716   79.1631 H       1  UNL1        0.1497
      7 C          -6.5605   63.8664   77.9474 C.ar    1  UNL1        0.0527
      8 C          -7.8189   64.1361   78.5279 C.ar    1  UNL1        0.0148
      9 C          -8.0875   65.3448   79.1718 C.ar    1  UNL1        0.0013
     10 C          -7.0932   66.3075   79.2711 C.ar    1  UNL1        0.0002
     11 C          -5.8340   66.0667   78.7295 C.ar    1  UNL1        0.0058
     12 C          -5.5449   64.8449   78.0901 C.ar    1  UNL1        0.0667
     13 N          -6.3112   62.5837   77.3724 N.pl3   1  UNL1       -0.3127
     14 H          -6.9272   62.4169   76.5673 H       1  UNL1        0.1522
     15 C          -6.5109   57.5924   77.4167 C.3     1  UNL1        0.0307
     16 C          -6.1423   58.8993   78.0643 C.ar    1  UNL1       -0.0246
     17 C          -5.7359   58.9013   79.4050 C.ar    1  UNL1       -0.0045
     18 C          -5.4805   60.1006   80.0620 C.ar    1  UNL1        0.0009
     19 C          -5.6734   61.3163   79.4019 C.ar    1  UNL1        0.0143
     20 C          -6.0415   61.3554   78.0440 C.ar    1  UNL1        0.0440
     21 C          -6.2306   60.1286   77.3592 C.ar    1  UNL1       -0.0124
     22 C          -6.4782   60.1085   75.8697 C.3     1  UNL1        0.0320
     23 C          -2.0121   61.2811   78.8389 C.3     1  UNL1        0.0018
     24 C          -2.2242   59.8129   78.4313 C.3     1  UNL1        0.0001
     25 C          -2.6011   59.6910   76.9454 C.3     1  UNL1        0.0017
     26 C          -2.8154   58.2364   76.4903 C.3     1  UNL1        0.0212
     27 C          -1.9946   57.9095   75.2282 C.3     1  UNL1        0.0870
     28 N          -0.5543   58.0103   75.4524 N.pl3   1  UNL1       -0.3328
     29 H          -0.1702   58.8458   75.0211 H       1  UNL1        0.1468
     30 C           0.2101   57.5948   76.5584 C.ar    1  UNL1        0.0431
     31 C           1.0189   58.5911   77.2045 C.ar    1  UNL1        0.0045
     32 C           1.8262   58.2022   78.2804 C.ar    1  UNL1        0.0561
     33 N           1.8179   56.9565   78.7905 N.ar    1  UNL1       -0.2499
     34 C           1.0720   56.0190   78.2080 C.ar    1  UNL1        0.0820
     35 C           1.0936   54.7726   78.8240 C.ar    1  UNL1        0.0191
     36 C           0.3705   53.6866   78.3408 C.ar    1  UNL1        0.0015
     37 C          -0.3492   53.8358   77.1778 C.ar    1  UNL1        0.0001
     38 C          -0.3646   55.0772   76.5418 C.ar    1  UNL1        0.0027
     39 C           0.2886   56.2381   77.0518 C.ar    1  UNL1        0.0305
     40 C           2.7355   59.1557   79.0126 C.3     1  UNL1        0.0455
     41 C           3.1083   60.3783   78.1911 C.3     1  UNL1        0.0066
     42 C           1.8355   61.0090   77.6541 C.3     1  UNL1        0.0052
     43 C           1.0772   60.0382   76.7321 C.3     1  UNL1        0.0288
@<TRIPOS>BOND
     1    15    16    1
     2    16    17   ar
     3    16    21   ar
     4    17    18   ar
     5    18    19   ar
     6    19    20   ar
     7    20    13    1
     8    20    21   ar
     9    13     7    1
    10    13    14    1
    11     7     8   ar
    12     7    12   ar
    13     8     9   ar
    14     9    10   ar
    15    10    11   ar
    16    11    12   ar
    17    12     3    1
    18     3     4    2
    19     3     5   am
    20     5     2    1
    21     5     6    1
    22     2     1    1
    23     1    23    1
    24    23    24    1
    25    24    25    1
    26    25    26    1
    27    26    27    1
    28    27    28    1
    29    28    30    1
    30    28    29    1
    31    30    31   ar
    32    30    39   ar
    33    31    32   ar
    34    31    43    1
    35    32    33   ar
    36    32    40    1
    37    33    34   ar
    38    34    35   ar
    39    34    39   ar
    40    35    36   ar
    41    36    37   ar
    42    37    38   ar
    43    38    39   ar
    44    40    41    1
    45    41    42    1
    46    42    43    1
    47    21    22    1
#	Name:			CHEMBL3221007
#	Creating user name:	trannguyen
#	Creation time:		Tue Feb  8 17:54:08 2022


#	Modifying user name:	trannguyen
#	Modification time:	Tue Feb  8 17:54:08 2022

@<TRIPOS>MOLECULE
CHEMBL3221007
 44 48 0 0 0
SMALL
GASTEIGER

@<TRIPOS>ATOM
      1 C          -5.0492   59.3629   75.9403 C.3     1  UNL1        0.0213
      2 C          -3.7342   58.9653   75.2464 C.3     1  UNL1        0.0897
      3 C          -2.0097   57.1451   75.2500 C.2     1  UNL1        0.2471
      4 O          -1.2024   57.7827   74.6128 O.2     1  UNL1       -0.2701
      5 N          -3.2742   57.6286   75.5964 N.am    1  UNL1       -0.3008
      6 H          -3.9488   56.9732   75.9681 H       1  UNL1        0.1497
      7 C          -0.4766   55.3767   76.3028 C.ar    1  UNL1        0.0527
      8 C          -0.3963   54.1131   76.9138 C.ar    1  UNL1        0.0148
      9 C          -1.4089   53.1623   76.7544 C.ar    1  UNL1        0.0013
     10 C          -2.5291   53.4654   75.9894 C.ar    1  UNL1        0.0002
     11 C          -2.6871   54.7591   75.4813 C.ar    1  UNL1        0.0058
     12 C          -1.6996   55.7403   75.6975 C.ar    1  UNL1        0.0667
     13 N           0.6102   56.2931   76.3766 N.pl3   1  UNL1       -0.3127
     14 H           1.4395   55.8915   75.9312 H       1  UNL1        0.1522
     15 C           2.5716   60.5742   78.0501 C.3     1  UNL1        0.0307
     16 C           2.0564   59.1773   78.2754 C.ar    1  UNL1       -0.0246
     17 C           1.9934   58.6866   79.5859 C.ar    1  UNL1       -0.0045
     18 C           1.5262   57.4003   79.8369 C.ar    1  UNL1        0.0009
     19 C           1.0703   56.6030   78.7857 C.ar    1  UNL1        0.0143
     20 C           1.0539   57.0875   77.4697 C.ar    1  UNL1        0.0440
     21 C           1.5960   58.3701   77.2064 C.ar    1  UNL1       -0.0124
     22 C           1.7424   58.8491   75.7830 C.3     1  UNL1        0.0320
     23 C          -5.7536   58.1661   76.5892 C.3     1  UNL1        0.0017
     24 C          -7.2529   58.3311   76.8518 C.3     1  UNL1        0.0001
     25 C          -7.6070   58.7987   78.2664 C.3     1  UNL1        0.0001
     26 C          -7.8556   60.3073   78.3552 C.3     1  UNL1        0.0017
     27 C          -7.3063   60.8985   79.6533 C.3     1  UNL1        0.0212
     28 C          -6.0876   61.7756   79.4288 C.3     1  UNL1        0.0870
     29 N          -4.8871   61.2806   80.0968 N.pl3   1  UNL1       -0.3328
     30 H          -5.0633   60.8959   81.0146 H       1  UNL1        0.1468
     31 C          -3.8580   60.6119   79.3890 C.ar    1  UNL1        0.0431
     32 C          -2.8306   61.3113   78.7026 C.ar    1  UNL1        0.0045
     33 C          -1.8381   60.5571   78.0690 C.ar    1  UNL1        0.0561
     34 N          -1.7184   59.2202   78.1986 N.ar    1  UNL1       -0.2499
     35 C          -2.6400   58.5520   78.8878 C.ar    1  UNL1        0.0820
     36 C          -2.4337   57.1832   79.0084 C.ar    1  UNL1        0.0191
     37 C          -3.3363   56.3526   79.6640 C.ar    1  UNL1        0.0015
     38 C          -4.5087   56.8991   80.1567 C.ar    1  UNL1        0.0001
     39 C          -4.7370   58.2787   80.0370 C.ar    1  UNL1        0.0027
     40 C          -3.7761   59.1645   79.4598 C.ar    1  UNL1        0.0305
     41 C          -0.7861   61.1865   77.1937 C.3     1  UNL1        0.0455
     42 C          -1.1510   62.5882   76.7284 C.3     1  UNL1        0.0066
     43 C          -1.5374   63.4149   77.9377 C.3     1  UNL1        0.0052
     44 C          -2.7736   62.8186   78.5938 C.3     1  UNL1        0.0288
@<TRIPOS>BOND
     1    15    16    1
     2    16    17   ar
     3    16    21   ar
     4    17    18   ar
     5    18    19   ar
     6    19    20   ar
     7    20    13    1
     8    20    21   ar
     9    13     7    1
    10    13    14    1
    11     7     8   ar
    12     7    12   ar
    13     8     9   ar
    14     9    10   ar
    15    10    11   ar
    16    11    12   ar
    17    12     3    1
    18     3     4    2
    19     3     5   am
    20     5     2    1
    21     5     6    1
    22     2     1    1
    23     1    23    1
    24    23    24    1
    25    24    25    1
    26    25    26    1
    27    26    27    1
    28    27    28    1
    29    28    29    1
    30    29    31    1
    31    29    30    1
    32    31    32   ar
    33    31    40   ar
    34    32    33   ar
    35    32    44    1
    36    33    34   ar
    37    33    41    1
    38    34    35   ar
    39    35    36   ar
    40    35    40   ar
    41    36    37   ar
    42    37    38   ar
    43    38    39   ar
    44    39    40   ar
    45    41    42    1
    46    42    43    1
    47    43    44    1
    48    21    22    1
#	Name:			CHEMBL3221008
#	Creating user name:	trannguyen
#	Creation time:		Tue Feb  8 17:54:08 2022


#	Modifying user name:	trannguyen
#	Modification time:	Tue Feb  8 17:54:08 2022

@<TRIPOS>MOLECULE
CHEMBL3221008
 45 49 0 0 0
SMALL
GASTEIGER

@<TRIPOS>ATOM
      1 C           3.8479   62.0434   67.6893 C.3     1  UNL1        0.0017
      2 C           3.7653   63.4247   67.0295 C.3     1  UNL1        0.0213
      3 C           3.3446   63.3527   65.5697 C.3     1  UNL1        0.0897
      4 C           3.1743   65.7729   64.9203 C.2     1  UNL1        0.2471
      5 O           2.2158   66.0008   65.6205 O.2     1  UNL1       -0.2701
      6 N           3.8138   64.5300   64.8555 N.am    1  UNL1       -0.3008
      7 H           4.6787   64.4351   64.3547 H       1  UNL1        0.1497
      8 C           3.6158   68.2316   64.3393 C.ar    1  UNL1        0.0527
      9 C           4.2019   69.1461   63.4427 C.ar    1  UNL1        0.0148
     10 C           4.9028   68.7306   62.3053 C.ar    1  UNL1        0.0013
     11 C           5.0378   67.3797   62.0261 C.ar    1  UNL1        0.0002
     12 C           4.4610   66.4447   62.8801 C.ar    1  UNL1        0.0058
     13 C           3.7688   66.8467   64.0464 C.ar    1  UNL1        0.0667
     14 N           2.9900   68.7123   65.5189 N.pl3   1  UNL1       -0.3127
     15 H           1.9880   68.8828   65.4036 H       1  UNL1        0.1522
     16 C           6.8853   70.7295   67.9628 C.3     1  UNL1        0.0307
     17 C           5.4137   70.4200   67.8451 C.ar    1  UNL1       -0.0246
     18 C           4.5870   70.6684   68.9458 C.ar    1  UNL1       -0.0045
     19 C           3.2551   70.2706   68.9228 C.ar    1  UNL1        0.0009
     20 C           2.7417   69.5938   67.8108 C.ar    1  UNL1        0.0143
     21 C           3.5185   69.3765   66.6610 C.ar    1  UNL1        0.0440
     22 C           4.8591   69.8429   66.6689 C.ar    1  UNL1       -0.0124
     23 C           5.7032   69.8115   65.4195 C.3     1  UNL1        0.0320
     24 C           2.5539   61.6887   68.4453 C.3     1  UNL1        0.0001
     25 C           2.7921   60.4985   69.3813 C.3     1  UNL1        0.0000
     26 C           1.9433   60.4761   70.6502 C.3     1  UNL1        0.0001
     27 C           2.4257   59.3625   71.5931 C.3     1  UNL1        0.0017
     28 C           2.8368   59.8925   72.9771 C.3     1  UNL1        0.0212
     29 C           2.3107   58.9674   74.0784 C.3     1  UNL1        0.0870
     30 N           1.4252   59.6772   74.9997 N.pl3   1  UNL1       -0.3328
     31 H           0.6265   60.0207   74.4755 H       1  UNL1        0.1468
     32 C           0.9896   59.1672   76.2548 C.ar    1  UNL1        0.0431
     33 C          -0.0506   58.2100   76.4042 C.ar    1  UNL1        0.0045
     34 C          -0.2998   57.6918   77.6823 C.ar    1  UNL1        0.0561
     35 N           0.4489   57.9798   78.7645 N.ar    1  UNL1       -0.2499
     36 C           1.4498   58.8475   78.6427 C.ar    1  UNL1        0.0820
     37 C           2.1874   59.0834   79.7950 C.ar    1  UNL1        0.0191
     38 C           3.2315   60.0019   79.8308 C.ar    1  UNL1        0.0015
     39 C           3.5453   60.7055   78.6815 C.ar    1  UNL1        0.0001
     40 C           2.8338   60.4559   77.5003 C.ar    1  UNL1        0.0027
     41 C           1.7689   59.5061   77.4334 C.ar    1  UNL1        0.0305
     42 C          -1.4075   56.7025   77.9461 C.3     1  UNL1        0.0455
     43 C          -2.5184   56.7542   76.9085 C.3     1  UNL1        0.0066
     44 C          -1.8980   56.6018   75.5401 C.3     1  UNL1        0.0052
     45 C          -0.9412   57.7527   75.2764 C.3     1  UNL1        0.0288
@<TRIPOS>BOND
     1    16    17    1
     2    17    18   ar
     3    17    22   ar
     4    18    19   ar
     5    19    20   ar
     6    20    21   ar
     7    21    14    1
     8    21    22   ar
     9    14     8    1
    10    14    15    1
    11     8     9   ar
    12     8    13   ar
    13     9    10   ar
    14    10    11   ar
    15    11    12   ar
    16    12    13   ar
    17    13     4    1
    18     4     5    2
    19     4     6   am
    20     6     3    1
    21     6     7    1
    22     3     2    1
    23     2     1    1
    24     1    24    1
    25    24    25    1
    26    25    26    1
    27    26    27    1
    28    27    28    1
    29    28    29    1
    30    29    30    1
    31    30    32    1
    32    30    31    1
    33    32    33   ar
    34    32    41   ar
    35    33    34   ar
    36    33    45    1
    37    34    35   ar
    38    34    42    1
    39    35    36   ar
    40    36    37   ar
    41    36    41   ar
    42    37    38   ar
    43    38    39   ar
    44    39    40   ar
    45    40    41   ar
    46    42    43    1
    47    43    44    1
    48    44    45    1
    49    22    23    1
#	Name:			CHEMBL3221009
#	Creating user name:	trannguyen
#	Creation time:		Tue Feb  8 17:54:08 2022


#	Modifying user name:	trannguyen
#	Modification time:	Tue Feb  8 17:54:08 2022

@<TRIPOS>MOLECULE
CHEMBL3221009
 46 50 0 0 0
SMALL
GASTEIGER

@<TRIPOS>ATOM
      1 C           3.7649   61.9783   67.7165 C.3     1  UNL1        0.0017
      2 C           3.7790   63.3683   67.0704 C.3     1  UNL1        0.0213
      3 C           3.4348   63.3009   65.5765 C.3     1  UNL1        0.0897
      4 C           3.0827   65.5990   64.7323 C.2     1  UNL1        0.2471
      5 O           1.9374   65.6419   65.2058 O.2     1  UNL1       -0.2701
      6 N           3.8772   64.4705   64.8420 N.am    1  UNL1       -0.3008
      7 H           4.8161   64.4768   64.4649 H       1  UNL1        0.1497
      8 C           3.2472   68.0827   64.1564 C.ar    1  UNL1        0.0527
      9 C           3.4835   69.0285   63.1363 C.ar    1  UNL1        0.0148
     10 C           4.0961   68.6769   61.9339 C.ar    1  UNL1        0.0013
     11 C           4.5081   67.3676   61.7260 C.ar    1  UNL1        0.0002
     12 C           4.2426   66.3962   62.6920 C.ar    1  UNL1        0.0058
     13 C           3.5951   66.7332   63.9008 C.ar    1  UNL1        0.0667
     14 N           2.7369   68.6020   65.3673 N.pl3   1  UNL1       -0.3127
     15 H           1.7250   68.7078   65.3808 H       1  UNL1        0.1522
     16 C           6.7633   70.7643   67.4175 C.3     1  UNL1        0.0307
     17 C           5.3208   70.3426   67.4497 C.ar    1  UNL1       -0.0246
     18 C           4.5856   70.5782   68.6182 C.ar    1  UNL1       -0.0045
     19 C           3.2734   70.1330   68.7238 C.ar    1  UNL1        0.0009
     20 C           2.6737   69.4595   67.6600 C.ar    1  UNL1        0.0143
     21 C           3.3661   69.2310   66.4631 C.ar    1  UNL1        0.0440
     22 C           4.7052   69.6863   66.3516 C.ar    1  UNL1       -0.0124
     23 C           5.4893   69.4755   65.0779 C.3     1  UNL1        0.0320
     24 C           2.5080   61.6949   68.5539 C.3     1  UNL1        0.0001
     25 C           2.6952   60.3988   69.3654 C.3     1  UNL1        0.0000
     26 C           2.1599   60.4643   70.8078 C.3     1  UNL1        0.0000
     27 C           2.4524   59.1542   71.5769 C.3     1  UNL1        0.0001
     28 C           3.1657   59.3663   72.9246 C.3     1  UNL1        0.0017
     29 C           2.1954   59.3397   74.1304 C.3     1  UNL1        0.0212
     30 C           2.6189   60.3492   75.2200 C.3     1  UNL1        0.0870
     31 N           1.7744   60.3248   76.4169 N.pl3   1  UNL1       -0.3328
     32 H           0.7823   60.3428   76.1861 H       1  UNL1        0.1468
     33 C           1.9733   59.6139   77.6169 C.ar    1  UNL1        0.0431
     34 C           1.2390   58.3928   77.7646 C.ar    1  UNL1        0.0045
     35 C           1.4562   57.6086   78.8999 C.ar    1  UNL1        0.0561
     36 N           2.4655   57.8477   79.7583 N.ar    1  UNL1       -0.2499
     37 C           3.1920   58.9586   79.6077 C.ar    1  UNL1        0.0820
     38 C           4.2549   59.1015   80.4919 C.ar    1  UNL1        0.0191
     39 C           5.0497   60.2434   80.5221 C.ar    1  UNL1        0.0015
     40 C           4.7394   61.2920   79.6802 C.ar    1  UNL1        0.0001
     41 C           3.7019   61.1402   78.7558 C.ar    1  UNL1        0.0027
     42 C           2.9388   59.9443   78.6292 C.ar    1  UNL1        0.0305
     43 C           0.6053   56.4110   79.2468 C.3     1  UNL1        0.0455
     44 C          -0.7147   56.3855   78.4876 C.3     1  UNL1        0.0066
     45 C          -0.4247   56.5735   77.0078 C.3     1  UNL1        0.0052
     46 C           0.1987   57.9545   76.7480 C.3     1  UNL1        0.0288
@<TRIPOS>BOND
     1    16    17    1
     2    17    18   ar
     3    17    22   ar
     4    18    19   ar
     5    19    20   ar
     6    20    21   ar
     7    21    14    1
     8    21    22   ar
     9    14     8    1
    10    14    15    1
    11     8     9   ar
    12     8    13   ar
    13     9    10   ar
    14    10    11   ar
    15    11    12   ar
    16    12    13   ar
    17    13     4    1
    18     4     5    2
    19     4     6   am
    20     6     3    1
    21     6     7    1
    22     3     2    1
    23     2     1    1
    24     1    24    1
    25    24    25    1
    26    25    26    1
    27    26    27    1
    28    27    28    1
    29    28    29    1
    30    29    30    1
    31    30    31    1
    32    31    33    1
    33    31    32    1
    34    33    34   ar
    35    33    42   ar
    36    34    35   ar
    37    34    46    1
    38    35    36   ar
    39    35    43    1
    40    36    37   ar
    41    37    38   ar
    42    37    42   ar
    43    38    39   ar
    44    39    40   ar
    45    40    41   ar
    46    41    42   ar
    47    43    44    1
    48    44    45    1
    49    45    46    1
    50    22    23    1
#	Name:			CHEMBL3221010
#	Creating user name:	trannguyen
#	Creation time:		Tue Feb  8 17:54:08 2022


#	Modifying user name:	trannguyen
#	Modification time:	Tue Feb  8 17:54:08 2022

@<TRIPOS>MOLECULE
CHEMBL3221010
 48 52 0 0 0
SMALL
GASTEIGER

@<TRIPOS>ATOM
      1 C          -0.6487   63.4042   78.7966 C.3     1  UNL1        0.0001
      2 C          -1.4764   63.3641   77.5039 C.3     1  UNL1        0.0017
      3 C          -1.9288   64.7326   76.9714 C.3     1  UNL1        0.0213
      4 C          -3.3794   65.0287   77.3447 C.3     1  UNL1        0.0897
      5 C          -5.0289   64.4309   79.2707 C.2     1  UNL1        0.2471
      6 O          -5.0711   64.2435   80.4741 O.2     1  UNL1       -0.2701
      7 N          -3.7776   64.5336   78.6505 N.am    1  UNL1       -0.3008
      8 H          -3.0248   64.4268   79.3244 H       1  UNL1        0.1497
      9 C          -6.9797   63.5324   77.8448 C.ar    1  UNL1        0.0527
     10 C          -8.2786   63.8152   77.3396 C.ar    1  UNL1        0.0148
     11 C          -8.8680   65.0772   77.4383 C.ar    1  UNL1        0.0013
     12 C          -8.1347   66.1297   77.9519 C.ar    1  UNL1        0.0002
     13 C          -6.8440   65.8884   78.4193 C.ar    1  UNL1        0.0058
     14 C          -6.3073   64.5903   78.5076 C.ar    1  UNL1        0.0667
     15 N          -6.4037   62.2568   77.5582 N.pl3   1  UNL1       -0.3127
     16 H          -5.8012   62.2240   76.7369 H       1  UNL1        0.1522
     17 C          -6.7222   57.2547   77.1655 C.3     1  UNL1        0.0307
     18 C          -6.8371   58.5446   77.9293 C.ar    1  UNL1       -0.0246
     19 C          -7.1005   58.4752   79.3030 C.ar    1  UNL1       -0.0045
     20 C          -7.3184   59.6298   80.0355 C.ar    1  UNL1        0.0009
     21 C          -7.1933   60.8684   79.4186 C.ar    1  UNL1        0.0143
     22 C          -6.8087   60.9906   78.0642 C.ar    1  UNL1        0.0440
     23 C          -6.7094   59.8075   77.2920 C.ar    1  UNL1       -0.0124
     24 C          -6.4441   59.8417   75.8074 C.3     1  UNL1        0.0320
     25 C          -1.1126   62.3881   79.8459 C.3     1  UNL1        0.0000
     26 C          -1.7919   61.1778   79.2026 C.3     1  UNL1        0.0000
     27 C          -3.2272   60.9827   79.7126 C.3     1  UNL1        0.0000
     28 C          -3.6056   59.4959   79.6859 C.3     1  UNL1        0.0000
     29 C          -2.6251   58.6324   78.8884 C.3     1  UNL1        0.0001
     30 C          -3.2242   58.0719   77.5828 C.3     1  UNL1        0.0017
     31 C          -2.7201   58.7515   76.2975 C.3     1  UNL1        0.0212
     32 C          -2.1190   57.7429   75.2941 C.3     1  UNL1        0.0870
     33 N          -0.6539   57.8546   75.2316 N.pl3   1  UNL1       -0.3328
     34 H          -0.2379   57.3847   74.4279 H       1  UNL1        0.1468
     35 C           0.1686   57.7480   76.3899 C.ar    1  UNL1        0.0431
     36 C           0.2466   56.4593   77.0100 C.ar    1  UNL1        0.0045
     37 C           0.9861   56.3285   78.1918 C.ar    1  UNL1        0.0561
     38 N           1.7140   57.3292   78.7217 N.ar    1  UNL1       -0.2499
     39 C           1.6667   58.5413   78.1524 C.ar    1  UNL1        0.0820
     40 C           2.4647   59.5228   78.7415 C.ar    1  UNL1        0.0191
     41 C           2.5053   60.8379   78.2751 C.ar    1  UNL1        0.0015
     42 C           1.6656   61.2093   77.2416 C.ar    1  UNL1        0.0001
     43 C           0.8244   60.2488   76.6644 C.ar    1  UNL1        0.0027
     44 C           0.8586   58.8573   77.0257 C.ar    1  UNL1        0.0305
     45 C           1.0808   55.0364   78.9627 C.3     1  UNL1        0.0455
     46 C           0.0066   54.0286   78.5891 C.3     1  UNL1        0.0066
     47 C          -0.0303   53.9014   77.0745 C.3     1  UNL1        0.0052
     48 C          -0.4427   55.2361   76.4316 C.3     1  UNL1        0.0288
@<TRIPOS>BOND
     1    17    18    1
     2    18    19   ar
     3    18    23   ar
     4    19    20   ar
     5    20    21   ar
     6    21    22   ar
     7    22    15    1
     8    22    23   ar
     9    15     9    1
    10    15    16    1
    11     9    10   ar
    12     9    14   ar
    13    10    11   ar
    14    11    12   ar
    15    12    13   ar
    16    13    14   ar
    17    14     5    1
    18     5     6    2
    19     5     7   am
    20     7     4    1
    21     7     8    1
    22     4     3    1
    23     3     2    1
    24     2     1    1
    25     1    25    1
    26    25    26    1
    27    26    27    1
    28    27    28    1
    29    28    29    1
    30    29    30    1
    31    30    31    1
    32    31    32    1
    33    32    33    1
    34    33    35    1
    35    33    34    1
    36    35    36   ar
    37    35    44   ar
    38    36    37   ar
    39    36    48    1
    40    37    38   ar
    41    37    45    1
    42    38    39   ar
    43    39    40   ar
    44    39    44   ar
    45    40    41   ar
    46    41    42   ar
    47    42    43   ar
    48    43    44   ar
    49    45    46    1
    50    46    47    1
    51    47    48    1
    52    23    24    1
#	Name:			CHEMBL3221270
#	Creating user name:	trannguyen
#	Creation time:		Tue Feb  8 17:54:08 2022


#	Modifying user name:	trannguyen
#	Modification time:	Tue Feb  8 17:54:08 2022

@<TRIPOS>MOLECULE
CHEMBL3221270
 44 48 0 0 0
SMALL
GASTEIGER

@<TRIPOS>ATOM
      1 C          -0.7514   63.3194   75.8565 C.2     1  UNL1        0.2425
      2 O          -1.3383   62.7615   74.9326 O.2     1  UNL1       -0.2733
      3 N           0.3200   62.7621   76.5140 N.am    1  UNL1       -0.3029
      4 H           0.5251   63.1597   77.4259 H       1  UNL1        0.1495
      5 C          -1.2553   64.6475   76.4573 C.3     1  UNL1        0.1759
      6 C          -3.6279   64.9323   77.3064 C.2     1  UNL1        0.2474
      7 O          -4.0678   65.3103   76.2428 O.2     1  UNL1       -0.2701
      8 N          -2.2979   64.5337   77.4791 N.am    1  UNL1       -0.2931
      9 H          -2.0007   64.1439   78.3568 H       1  UNL1        0.1502
     10 C          -5.1294   63.5216   78.8505 C.ar    1  UNL1        0.0527
     11 C          -5.9338   63.5300   80.0094 C.ar    1  UNL1        0.0148
     12 C          -6.1539   64.6895   80.7589 C.ar    1  UNL1        0.0013
     13 C          -5.5716   65.8876   80.3809 C.ar    1  UNL1        0.0002
     14 C          -4.7650   65.9226   79.2538 C.ar    1  UNL1        0.0058
     15 C          -4.5333   64.7550   78.4962 C.ar    1  UNL1        0.0667
     16 N          -4.9383   62.2841   78.1749 N.pl3   1  UNL1       -0.3127
     17 H          -5.4683   62.2026   77.3075 H       1  UNL1        0.1522
     18 C          -6.0618   57.7763   80.1420 C.3     1  UNL1        0.0307
     19 C          -5.0716   58.7950   79.6394 C.ar    1  UNL1       -0.0246
     20 C          -3.7132   58.5182   79.7889 C.ar    1  UNL1       -0.0045
     21 C          -2.7698   59.4447   79.3655 C.ar    1  UNL1        0.0009
     22 C          -3.1723   60.6787   78.8361 C.ar    1  UNL1        0.0143
     23 C          -4.5260   61.0058   78.6687 C.ar    1  UNL1        0.0440
     24 C          -5.4740   60.0067   79.0037 C.ar    1  UNL1       -0.0124
     25 C          -6.9230   60.1759   78.6589 C.3     1  UNL1        0.0320
     26 C           0.8172   61.4281   76.2924 C.3     1  UNL1        0.0912
     27 C           0.0355   60.4361   77.1674 C.3     1  UNL1        0.0424
     28 C           0.6137   59.0386   77.0187 C.3     1  UNL1        0.0888
     29 N           0.0115   58.2463   75.9314 N.pl3   1  UNL1       -0.3328
     30 H           0.7175   57.8486   75.3304 H       1  UNL1        0.1468
     31 C          -0.9923   57.2698   76.2336 C.ar    1  UNL1        0.0431
     32 C          -0.6656   56.0038   76.7838 C.ar    1  UNL1        0.0045
     33 C          -1.7083   55.1093   77.0451 C.ar    1  UNL1        0.0561
     34 N          -3.0123   55.4303   76.9443 N.ar    1  UNL1       -0.2499
     35 C          -3.3491   56.6427   76.5226 C.ar    1  UNL1        0.0820
     36 C          -4.7149   56.9024   76.4946 C.ar    1  UNL1        0.0191
     37 C          -5.2334   58.1053   76.0345 C.ar    1  UNL1        0.0015
     38 C          -4.3556   59.0634   75.5711 C.ar    1  UNL1        0.0001
     39 C          -2.9717   58.8187   75.6098 C.ar    1  UNL1        0.0027
     40 C          -2.4062   57.6113   76.1133 C.ar    1  UNL1        0.0305
     41 C          -1.4672   53.6990   77.5142 C.3     1  UNL1        0.0455
     42 C          -0.0339   53.2255   77.3310 C.3     1  UNL1        0.0066
     43 C           0.9016   54.2791   77.8819 C.3     1  UNL1        0.0052
     44 C           0.7455   55.5614   77.0835 C.3     1  UNL1        0.0288
@<TRIPOS>BOND
     1    18    19    1
     2    19    20   ar
     3    19    24   ar
     4    20    21   ar
     5    21    22   ar
     6    22    23   ar
     7    23    16    1
     8    23    24   ar
     9    16    10    1
    10    16    17    1
    11    10    11   ar
    12    10    15   ar
    13    11    12   ar
    14    12    13   ar
    15    13    14   ar
    16    14    15   ar
    17    15     6    1
    18     6     7    2
    19     6     8   am
    20     8     5    1
    21     8     9    1
    22     5     1    1
    23     1     2    2
    24     1     3   am
    25     3    26    1
    26     3     4    1
    27    26    27    1
    28    27    28    1
    29    28    29    1
    30    29    31    1
    31    29    30    1
    32    31    32   ar
    33    31    40   ar
    34    32    33   ar
    35    32    44    1
    36    33    34   ar
    37    33    41    1
    38    34    35   ar
    39    35    36   ar
    40    35    40   ar
    41    36    37   ar
    42    37    38   ar
    43    38    39   ar
    44    39    40   ar
    45    41    42    1
    46    42    43    1
    47    43    44    1
    48    24    25    1
#	Name:			CHEMBL3221273
#	Creating user name:	trannguyen
#	Creation time:		Tue Feb  8 17:54:08 2022


#	Modifying user name:	trannguyen
#	Modification time:	Tue Feb  8 17:54:08 2022

@<TRIPOS>MOLECULE
CHEMBL3221273
 48 52 0 0 0
SMALL
GASTEIGER

@<TRIPOS>ATOM
      1 C          -6.8335   81.1592   70.7914 C.3     1  UNL1        0.0096
      2 C          -5.8720   81.0757   71.9799 C.3     1  UNL1        0.0023
      3 C          -6.4471   80.2917   73.1696 C.3     1  UNL1        0.0213
      4 C          -6.4485   81.1106   74.4587 C.3     1  UNL1        0.0897
      5 C          -6.7096   79.8573   76.6301 C.2     1  UNL1        0.2471
      6 O          -7.9158   79.8887   76.5932 O.2     1  UNL1       -0.2701
      7 N          -5.9128   80.3493   75.5840 N.am    1  UNL1       -0.3008
      8 H          -4.9289   80.1435   75.5745 H       1  UNL1        0.1497
      9 C          -6.3788   78.1952   78.5993 C.ar    1  UNL1        0.0527
     10 C          -5.6184   77.8519   79.7394 C.ar    1  UNL1        0.0148
     11 C          -4.5077   78.5907   80.1419 C.ar    1  UNL1        0.0013
     12 C          -4.1217   79.7041   79.4129 C.ar    1  UNL1        0.0002
     13 C          -4.8448   80.0699   78.2763 C.ar    1  UNL1        0.0058
     14 C          -5.9593   79.3206   77.8349 C.ar    1  UNL1        0.0667
     15 N          -7.4944   77.3789   78.2865 N.pl3   1  UNL1       -0.3127
     16 H          -8.3710   77.8833   78.3449 H       1  UNL1        0.1522
     17 C          -7.8507   72.3912   78.5060 C.3     1  UNL1        0.0307
     18 C          -7.7579   73.6668   77.7054 C.ar    1  UNL1       -0.0246
     19 C          -7.4647   73.5942   76.3406 C.ar    1  UNL1       -0.0045
     20 C          -7.2532   74.7589   75.6120 C.ar    1  UNL1        0.0009
     21 C          -7.2629   76.0011   76.2565 C.ar    1  UNL1        0.0143
     22 C          -7.5767   76.1224   77.6225 C.ar    1  UNL1        0.0440
     23 C          -7.9296   74.9384   78.3191 C.ar    1  UNL1       -0.0124
     24 C          -8.5307   74.9786   79.7005 C.3     1  UNL1        0.0320
     25 C          -6.1560   80.8555   69.4591 C.3     1  UNL1        0.0850
     26 C          -6.1994   79.3805   69.1377 C.2     1  UNL1        0.2225
     27 O          -5.3453   78.6026   69.5637 O.2     1  UNL1       -0.2751
     28 N          -7.2267   78.8958   68.3850 N.am    1  UNL1       -0.3043
     29 H          -7.1854   77.8899   68.2595 H       1  UNL1        0.1494
     30 C          -8.3582   79.6004   67.8134 C.3     1  UNL1        0.0911
     31 C          -9.6688   78.8705   68.0723 C.3     1  UNL1        0.0424
     32 C          -9.4482   77.3999   68.3881 C.3     1  UNL1        0.0888
     33 N         -10.3943   76.8723   69.3656 N.pl3   1  UNL1       -0.3328
     34 H         -10.9204   76.1033   68.9646 H       1  UNL1        0.1468
     35 C         -10.1189   76.6795   70.7378 C.ar    1  UNL1        0.0431
     36 C          -9.9270   75.3400   71.1947 C.ar    1  UNL1        0.0045
     37 C          -9.7830   75.1196   72.5680 C.ar    1  UNL1        0.0561
     38 N          -9.7084   76.1177   73.4675 N.ar    1  UNL1       -0.2499
     39 C          -9.8544   77.3757   73.0569 C.ar    1  UNL1        0.0820
     40 C          -9.7773   78.3399   74.0527 C.ar    1  UNL1        0.0191
     41 C          -9.9514   79.6943   73.7900 C.ar    1  UNL1        0.0015
     42 C         -10.2525   80.0894   72.5028 C.ar    1  UNL1        0.0001
     43 C         -10.3533   79.1261   71.4946 C.ar    1  UNL1        0.0027
     44 C         -10.1047   77.7409   71.7147 C.ar    1  UNL1        0.0305
     45 C          -9.6690   73.7433   73.1708 C.3     1  UNL1        0.0455
     46 C         -10.0878   72.6251   72.2285 C.3     1  UNL1        0.0066
     47 C          -9.4276   72.8388   70.8792 C.3     1  UNL1        0.0052
     48 C          -9.9153   74.1486   70.2541 C.3     1  UNL1        0.0288
@<TRIPOS>BOND
     1    17    18    1
     2    18    19   ar
     3    18    23   ar
     4    19    20   ar
     5    20    21   ar
     6    21    22   ar
     7    22    15    1
     8    22    23   ar
     9    15     9    1
    10    15    16    1
    11     9    10   ar
    12     9    14   ar
    13    10    11   ar
    14    11    12   ar
    15    12    13   ar
    16    13    14   ar
    17    14     5    1
    18     5     6    2
    19     5     7   am
    20     7     4    1
    21     7     8    1
    22     4     3    1
    23     3     2    1
    24     2     1    1
    25     1    25    1
    26    25    26    1
    27    26    27    2
    28    26    28   am
    29    28    30    1
    30    28    29    1
    31    30    31    1
    32    31    32    1
    33    32    33    1
    34    33    35    1
    35    33    34    1
    36    35    36   ar
    37    35    44   ar
    38    36    37   ar
    39    36    48    1
    40    37    38   ar
    41    37    45    1
    42    38    39   ar
    43    39    40   ar
    44    39    44   ar
    45    40    41   ar
    46    41    42   ar
    47    42    43   ar
    48    43    44   ar
    49    45    46    1
    50    46    47    1
    51    47    48    1
    52    23    24    1
#	Name:			CHEMBL3221274
#	Creating user name:	trannguyen
#	Creation time:		Tue Feb  8 17:54:08 2022


#	Modifying user name:	trannguyen
#	Modification time:	Tue Feb  8 17:54:08 2022

@<TRIPOS>MOLECULE
CHEMBL3221274
 45 49 0 0 0
SMALL
GASTEIGER

@<TRIPOS>ATOM
      1 C           2.7225   60.6924   70.7312 C.2     1  UNL1        0.2425
      2 O           3.2271   61.4551   71.5569 O.2     1  UNL1       -0.2733
      3 N           2.8462   60.8599   69.3683 N.am    1  UNL1       -0.3030
      4 H           2.3695   60.2105   68.7537 H       1  UNL1        0.1495
      5 C           1.8392   59.5213   71.1636 C.3     1  UNL1        0.1759
      6 C           2.2395   59.1381   73.6117 C.2     1  UNL1        0.2474
      7 O           3.2440   58.4405   73.4124 O.2     1  UNL1       -0.2701
      8 N           1.5045   59.6574   72.5667 N.am    1  UNL1       -0.2931
      9 H           0.6038   60.1106   72.7302 H       1  UNL1        0.1502
     10 C           0.6737   58.8301   75.6289 C.ar    1  UNL1        0.0527
     11 C           0.3944   59.1529   76.9750 C.ar    1  UNL1        0.0148
     12 C           1.1215   60.1050   77.6854 C.ar    1  UNL1        0.0013
     13 C           2.2091   60.7087   77.0874 C.ar    1  UNL1        0.0002
     14 C           2.5629   60.3609   75.7839 C.ar    1  UNL1        0.0058
     15 C           1.8074   59.4294   75.0189 C.ar    1  UNL1        0.0667
     16 N          -0.1826   57.8710   74.9848 N.pl3   1  UNL1       -0.3127
     17 H          -0.1491   57.9369   73.9633 H       1  UNL1        0.1522
     18 C          -3.1873   54.4306   77.1833 C.3     1  UNL1        0.0307
     19 C          -2.8999   55.7992   76.6184 C.ar    1  UNL1       -0.0246
     20 C          -3.9692   56.7018   76.5312 C.ar    1  UNL1       -0.0045
     21 C          -3.8163   57.9043   75.8613 C.ar    1  UNL1        0.0009
     22 C          -2.5905   58.2167   75.2822 C.ar    1  UNL1        0.0143
     23 C          -1.4481   57.4149   75.4725 C.ar    1  UNL1        0.0440
     24 C          -1.6065   56.1840   76.1581 C.ar    1  UNL1       -0.0124
     25 C          -0.4338   55.2778   76.4357 C.3     1  UNL1        0.0320
     26 C           3.5912   61.9579   68.7768 C.3     1  UNL1        0.0895
     27 C           3.1334   62.2771   67.3528 C.3     1  UNL1        0.0230
     28 C           3.8035   63.5085   66.7289 C.3     1  UNL1        0.0229
     29 C           3.5187   63.7440   65.2363 C.3     1  UNL1        0.0871
     30 N           2.7221   64.9462   65.0306 N.pl3   1  UNL1       -0.3328
     31 H           1.7935   64.8062   65.4119 H       1  UNL1        0.1468
     32 C           3.1142   66.2962   65.0476 C.ar    1  UNL1        0.0431
     33 C           3.7728   66.9582   63.9785 C.ar    1  UNL1        0.0045
     34 C           4.0825   68.3214   64.1282 C.ar    1  UNL1        0.0561
     35 N           3.6539   69.0717   65.1631 N.ar    1  UNL1       -0.2499
     36 C           2.9365   68.4955   66.1221 C.ar    1  UNL1        0.0820
     37 C           2.4289   69.3433   67.0984 C.ar    1  UNL1        0.0191
     38 C           1.6951   68.8691   68.1810 C.ar    1  UNL1        0.0015
     39 C           1.4930   67.5074   68.3075 C.ar    1  UNL1        0.0001
     40 C           1.9725   66.6426   67.3178 C.ar    1  UNL1        0.0027
     41 C           2.6741   67.1093   66.1661 C.ar    1  UNL1        0.0305
     42 C           4.8606   69.1168   63.1096 C.3     1  UNL1        0.0455
     43 C           5.3720   68.3277   61.9153 C.3     1  UNL1        0.0066
     44 C           4.3613   67.2732   61.5101 C.3     1  UNL1        0.0052
     45 C           4.1171   66.2990   62.6658 C.3     1  UNL1        0.0288
@<TRIPOS>BOND
     1    18    19    1
     2    19    20   ar
     3    19    24   ar
     4    20    21   ar
     5    21    22   ar
     6    22    23   ar
     7    23    16    1
     8    23    24   ar
     9    16    10    1
    10    16    17    1
    11    10    11   ar
    12    10    15   ar
    13    11    12   ar
    14    12    13   ar
    15    13    14   ar
    16    14    15   ar
    17    15     6    1
    18     6     7    2
    19     6     8   am
    20     8     5    1
    21     8     9    1
    22     5     1    1
    23     1     2    2
    24     1     3   am
    25     3    26    1
    26     3     4    1
    27    26    27    1
    28    27    28    1
    29    28    29    1
    30    29    30    1
    31    30    32    1
    32    30    31    1
    33    32    33   ar
    34    32    41   ar
    35    33    34   ar
    36    33    45    1
    37    34    35   ar
    38    34    42    1
    39    35    36   ar
    40    36    37   ar
    41    36    41   ar
    42    37    38   ar
    43    38    39   ar
    44    39    40   ar
    45    40    41   ar
    46    42    43    1
    47    43    44    1
    48    44    45    1
    49    24    25    1
#	Name:			CHEMBL3221275
#	Creating user name:	trannguyen
#	Creation time:		Tue Feb  8 17:54:08 2022


#	Modifying user name:	trannguyen
#	Modification time:	Tue Feb  8 17:54:08 2022

@<TRIPOS>MOLECULE
CHEMBL3221275
 46 50 0 0 0
SMALL
GASTEIGER

@<TRIPOS>ATOM
      1 C          -0.0143   61.8316   77.0489 C.2     1  UNL1        0.2242
      2 O          -0.3909   60.9825   76.2600 O.2     1  UNL1       -0.2750
      3 N           1.1846   61.7544   77.7483 N.am    1  UNL1       -0.3043
      4 H           1.5013   62.5783   78.2369 H       1  UNL1        0.1494
      5 C          -0.8000   63.1084   77.3394 C.3     1  UNL1        0.1062
      6 C          -1.9340   62.8666   78.3246 C.3     1  UNL1        0.0993
      7 C          -2.8558   60.5490   78.4289 C.2     1  UNL1        0.2471
      8 O          -3.6761   60.7909   77.5810 O.2     1  UNL1       -0.2701
      9 N          -1.9266   61.5041   78.8596 N.am    1  UNL1       -0.3003
     10 H          -1.2026   61.2487   79.4829 H       1  UNL1        0.1498
     11 C          -4.0064   58.6092   79.6348 C.ar    1  UNL1        0.0527
     12 C          -3.8498   57.3654   80.2890 C.ar    1  UNL1        0.0148
     13 C          -2.6095   56.7344   80.4185 C.ar    1  UNL1        0.0013
     14 C          -1.4774   57.3097   79.8622 C.ar    1  UNL1        0.0002
     15 C          -1.5889   58.5333   79.2015 C.ar    1  UNL1        0.0058
     16 C          -2.8248   59.1948   79.0837 C.ar    1  UNL1        0.0667
     17 N          -5.3104   59.1816   79.5339 N.pl3   1  UNL1       -0.3127
     18 H          -5.6157   59.6605   80.3845 H       1  UNL1        0.1522
     19 C          -8.6530   60.4695   75.9472 C.3     1  UNL1        0.0307
     20 C          -7.9509   59.4681   76.8344 C.ar    1  UNL1       -0.0246
     21 C          -8.2360   58.1117   76.6343 C.ar    1  UNL1       -0.0045
     22 C          -7.6557   57.1485   77.4472 C.ar    1  UNL1        0.0009
     23 C          -6.7458   57.5257   78.4367 C.ar    1  UNL1        0.0143
     24 C          -6.3754   58.8684   78.6370 C.ar    1  UNL1        0.0440
     25 C          -7.0506   59.8594   77.8720 C.ar    1  UNL1       -0.0124
     26 C          -6.8368   61.3362   78.0880 C.3     1  UNL1        0.0320
     27 C           2.1516   60.6931   77.5041 C.3     1  UNL1        0.0894
     28 C           2.2629   59.6578   78.6306 C.3     1  UNL1        0.0230
     29 C           1.8209   58.2383   78.2703 C.3     1  UNL1        0.0229
     30 C           1.4253   58.1094   76.7890 C.3     1  UNL1        0.0871
     31 N           1.0514   56.7572   76.3475 N.pl3   1  UNL1       -0.3328
     32 H           1.5312   56.4806   75.4999 H       1  UNL1        0.1468
     33 C          -0.1075   56.0151   76.6321 C.ar    1  UNL1        0.0431
     34 C          -0.1036   54.7537   77.2766 C.ar    1  UNL1        0.0045
     35 C          -1.3379   54.1203   77.5261 C.ar    1  UNL1        0.0561
     36 N          -2.5275   54.7005   77.3342 N.ar    1  UNL1       -0.2499
     37 C          -2.5532   55.8733   76.7374 C.ar    1  UNL1        0.0820
     38 C          -3.8204   56.3987   76.6021 C.ar    1  UNL1        0.0191
     39 C          -4.0320   57.5923   75.9357 C.ar    1  UNL1        0.0015
     40 C          -2.9535   58.2214   75.3309 C.ar    1  UNL1        0.0001
     41 C          -1.6571   57.7037   75.4788 C.ar    1  UNL1        0.0027
     42 C          -1.4026   56.5496   76.2657 C.ar    1  UNL1        0.0305
     43 C          -1.4706   52.7167   78.0468 C.3     1  UNL1        0.0455
     44 C          -0.2007   51.9116   77.8685 C.3     1  UNL1        0.0066
     45 C           0.9428   52.7276   78.4255 C.3     1  UNL1        0.0052
     46 C           1.1531   53.9819   77.5849 C.3     1  UNL1        0.0288
@<TRIPOS>BOND
     1    19    20    1
     2    20    21   ar
     3    20    25   ar
     4    21    22   ar
     5    22    23   ar
     6    23    24   ar
     7    24    17    1
     8    24    25   ar
     9    17    11    1
    10    17    18    1
    11    11    12   ar
    12    11    16   ar
    13    12    13   ar
    14    13    14   ar
    15    14    15   ar
    16    15    16   ar
    17    16     7    1
    18     7     8    2
    19     7     9   am
    20     9     6    1
    21     9    10    1
    22     6     5    1
    23     5     1    1
    24     1     2    2
    25     1     3   am
    26     3    27    1
    27     3     4    1
    28    27    28    1
    29    28    29    1
    30    29    30    1
    31    30    31    1
    32    31    33    1
    33    31    32    1
    34    33    34   ar
    35    33    42   ar
    36    34    35   ar
    37    34    46    1
    38    35    36   ar
    39    35    43    1
    40    36    37   ar
    41    37    38   ar
    42    37    42   ar
    43    38    39   ar
    44    39    40   ar
    45    40    41   ar
    46    41    42   ar
    47    43    44    1
    48    44    45    1
    49    45    46    1
    50    25    26    1
#	Name:			CHEMBL3221276
#	Creating user name:	trannguyen
#	Creation time:		Tue Feb  8 17:54:08 2022


#	Modifying user name:	trannguyen
#	Modification time:	Tue Feb  8 17:54:08 2022

@<TRIPOS>MOLECULE
CHEMBL3221276
 47 51 0 0 0
SMALL
GASTEIGER

@<TRIPOS>ATOM
      1 C          -0.9543   63.2911   76.1683 C.2     1  UNL1        0.2225
      2 O          -1.2171   63.3652   74.9771 O.2     1  UNL1       -0.2751
      3 N          -1.4234   64.1775   77.1229 N.am    1  UNL1       -0.3043
      4 H          -1.2314   63.9825   78.0978 H       1  UNL1        0.1494
      5 C          -0.1149   62.1543   76.7382 C.3     1  UNL1        0.0868
      6 C          -0.7457   61.6755   78.0501 C.3     1  UNL1        0.0308
      7 C          -2.1145   61.0210   77.8904 C.3     1  UNL1        0.0902
      8 C          -2.5371   59.1528   76.2573 C.2     1  UNL1        0.2471
      9 O          -3.0754   59.8629   75.4183 O.2     1  UNL1       -0.2701
     10 N          -1.9482   59.6527   77.4008 N.am    1  UNL1       -0.3008
     11 H          -1.5998   58.9711   78.0593 H       1  UNL1        0.1497
     12 C          -1.2337   56.8878   75.9424 C.ar    1  UNL1        0.0527
     13 C          -1.3561   55.4981   75.6815 C.ar    1  UNL1        0.0148
     14 C          -2.5912   54.8863   75.4801 C.ar    1  UNL1        0.0013
     15 C          -3.7471   55.6441   75.5640 C.ar    1  UNL1        0.0002
     16 C          -3.6636   57.0091   75.8574 C.ar    1  UNL1        0.0058
     17 C          -2.4194   57.6603   76.0262 C.ar    1  UNL1        0.0667
     18 N           0.1006   57.3571   76.0411 N.pl3   1  UNL1       -0.3127
     19 H           0.7279   56.9090   75.3798 H       1  UNL1        0.1522
     20 C           3.1322   60.6823   78.2020 C.3     1  UNL1        0.0307
     21 C           2.2434   59.4685   78.2265 C.ar    1  UNL1       -0.0246
     22 C           2.0107   58.8430   79.4623 C.ar    1  UNL1       -0.0045
     23 C           1.2758   57.6644   79.5407 C.ar    1  UNL1        0.0009
     24 C           0.7167   57.1242   78.3908 C.ar    1  UNL1        0.0143
     25 C           0.8370   57.7876   77.1642 C.ar    1  UNL1        0.0440
     26 C           1.6751   58.9243   77.0533 C.ar    1  UNL1       -0.0124
     27 C           1.8556   59.6274   75.7277 C.3     1  UNL1        0.0320
     28 C          -2.3480   65.2539   76.8099 C.3     1  UNL1        0.0894
     29 C          -3.5245   65.3962   77.7885 C.3     1  UNL1        0.0230
     30 C          -3.6747   64.1867   78.7019 C.3     1  UNL1        0.0229
     31 C          -4.4939   64.4034   79.9734 C.3     1  UNL1        0.0871
     32 N          -5.7949   63.7394   79.9514 N.pl3   1  UNL1       -0.3328
     33 H          -5.7518   62.8433   80.4331 H       1  UNL1        0.1468
     34 C          -6.6621   63.6273   78.8349 C.ar    1  UNL1        0.0431
     35 C          -6.7024   62.5387   77.9226 C.ar    1  UNL1        0.0045
     36 C          -7.5253   62.6539   76.7870 C.ar    1  UNL1        0.0561
     37 N          -8.3459   63.6951   76.5595 N.ar    1  UNL1       -0.2499
     38 C          -8.3922   64.6763   77.4472 C.ar    1  UNL1        0.0820
     39 C          -9.3636   65.6366   77.2160 C.ar    1  UNL1        0.0191
     40 C          -9.5495   66.7095   78.0751 C.ar    1  UNL1        0.0015
     41 C          -8.6949   66.8586   79.1568 C.ar    1  UNL1        0.0001
     42 C          -7.6992   65.9013   79.3967 C.ar    1  UNL1        0.0027
     43 C          -7.5538   64.7431   78.5814 C.ar    1  UNL1        0.0305
     44 C          -7.6944   61.5571   75.7684 C.3     1  UNL1        0.0455
     45 C          -6.6707   60.4419   75.8640 C.3     1  UNL1        0.0066
     46 C          -6.5061   60.0534   77.3178 C.3     1  UNL1        0.0052
     47 C          -5.9527   61.2392   78.1022 C.3     1  UNL1        0.0288
@<TRIPOS>BOND
     1    20    21    1
     2    21    22   ar
     3    21    26   ar
     4    22    23   ar
     5    23    24   ar
     6    24    25   ar
     7    25    18    1
     8    25    26   ar
     9    18    12    1
    10    18    19    1
    11    12    13   ar
    12    12    17   ar
    13    13    14   ar
    14    14    15   ar
    15    15    16   ar
    16    16    17   ar
    17    17     8    1
    18     8     9    2
    19     8    10   am
    20    10     7    1
    21    10    11    1
    22     7     6    1
    23     6     5    1
    24     5     1    1
    25     1     2    2
    26     1     3   am
    27     3    28    1
    28     3     4    1
    29    28    29    1
    30    29    30    1
    31    30    31    1
    32    31    32    1
    33    32    34    1
    34    32    33    1
    35    34    35   ar
    36    34    43   ar
    37    35    36   ar
    38    35    47    1
    39    36    37   ar
    40    36    44    1
    41    37    38   ar
    42    38    39   ar
    43    38    43   ar
    44    39    40   ar
    45    40    41   ar
    46    41    42   ar
    47    42    43   ar
    48    44    45    1
    49    45    46    1
    50    46    47    1
    51    26    27    1
#	Name:			CHEMBL3221278
#	Creating user name:	trannguyen
#	Creation time:		Tue Feb  8 17:54:08 2022


#	Modifying user name:	trannguyen
#	Modification time:	Tue Feb  8 17:54:08 2022

@<TRIPOS>MOLECULE
CHEMBL3221278
 47 51 0 0 0
SMALL
GASTEIGER

@<TRIPOS>ATOM
      1 C           3.6332   63.4324   66.4314 C.2     1  UNL1        0.2425
      2 O           4.0219   64.4104   67.0588 O.2     1  UNL1       -0.2733
      3 N           3.3057   62.2227   67.0233 N.am    1  UNL1       -0.3030
      4 H           2.9223   61.4857   66.4457 H       1  UNL1        0.1495
      5 C           3.3385   63.4788   64.9231 C.3     1  UNL1        0.1759
      6 C           3.1173   65.8980   64.3401 C.2     1  UNL1        0.2474
      7 O           2.0854   66.0639   65.0145 O.2     1  UNL1       -0.2701
      8 N           3.7932   64.6957   64.2745 N.am    1  UNL1       -0.2931
      9 H           4.6375   64.6208   63.7192 H       1  UNL1        0.1502
     10 C           4.0346   68.2730   64.2448 C.ar    1  UNL1        0.0527
     11 C           4.8441   69.1815   63.5509 C.ar    1  UNL1        0.0148
     12 C           5.2757   68.9430   62.2443 C.ar    1  UNL1        0.0013
     13 C           4.8876   67.7831   61.5905 C.ar    1  UNL1        0.0002
     14 C           4.1189   66.8365   62.2645 C.ar    1  UNL1        0.0058
     15 C           3.7416   67.0361   63.6142 C.ar    1  UNL1        0.0667
     16 N           3.6531   68.5631   65.5847 N.pl3   1  UNL1       -0.3127
     17 H           2.6360   68.6671   65.6767 H       1  UNL1        0.1522
     18 C           3.5180   71.2630   69.7944 C.3     1  UNL1        0.0307
     19 C           4.2638   70.7005   68.6126 C.ar    1  UNL1       -0.0246
     20 C           5.5780   71.1233   68.3789 C.ar    1  UNL1       -0.0045
     21 C           6.2642   70.6864   67.2518 C.ar    1  UNL1        0.0009
     22 C           5.6276   69.8585   66.3238 C.ar    1  UNL1        0.0143
     23 C           4.3247   69.3781   66.5430 C.ar    1  UNL1        0.0440
     24 C           3.6571   69.7716   67.7265 C.ar    1  UNL1       -0.0124
     25 C           2.3371   69.1503   68.1085 C.3     1  UNL1        0.0320
     26 C           3.3775   62.0013   68.4588 C.3     1  UNL1        0.0894
     27 C           2.1764   61.2027   68.9701 C.3     1  UNL1        0.0212
     28 C           2.5905   60.0608   69.9098 C.3     1  UNL1        0.0018
     29 C           2.4516   60.4019   71.4057 C.3     1  UNL1        0.0018
     30 C           2.0458   59.1896   72.2546 C.3     1  UNL1        0.0212
     31 C           2.5204   59.2636   73.7072 C.3     1  UNL1        0.0870
     32 N           1.3650   59.5230   74.5726 N.pl3   1  UNL1       -0.3328
     33 H           1.0903   60.5028   74.5965 H       1  UNL1        0.1468
     34 C           1.1549   58.9325   75.8365 C.ar    1  UNL1        0.0431
     35 C           1.8571   59.2919   77.0080 C.ar    1  UNL1        0.0045
     36 C           1.5786   58.5902   78.1888 C.ar    1  UNL1        0.0561
     37 N           0.6213   57.6437   78.2869 N.ar    1  UNL1       -0.2499
     38 C          -0.1288   57.3778   77.2180 C.ar    1  UNL1        0.0820
     39 C          -1.1706   56.4764   77.3933 C.ar    1  UNL1        0.0191
     40 C          -2.0560   56.1628   76.3646 C.ar    1  UNL1        0.0015
     41 C          -1.8786   56.7444   75.1189 C.ar    1  UNL1        0.0001
     42 C          -0.8157   57.6326   74.9146 C.ar    1  UNL1        0.0027
     43 C           0.0765   57.9886   75.9622 C.ar    1  UNL1        0.0305
     44 C           2.2474   58.9278   79.4964 C.3     1  UNL1        0.0455
     45 C           3.5441   59.7061   79.3328 C.3     1  UNL1        0.0066
     46 C           3.2990   60.8933   78.4242 C.3     1  UNL1        0.0052
     47 C           2.8516   60.4231   77.0466 C.3     1  UNL1        0.0288
@<TRIPOS>BOND
     1    18    19    1
     2    19    20   ar
     3    19    24   ar
     4    20    21   ar
     5    21    22   ar
     6    22    23   ar
     7    23    16    1
     8    23    24   ar
     9    16    10    1
    10    16    17    1
    11    10    11   ar
    12    10    15   ar
    13    11    12   ar
    14    12    13   ar
    15    13    14   ar
    16    14    15   ar
    17    15     6    1
    18     6     7    2
    19     6     8   am
    20     8     5    1
    21     8     9    1
    22     5     1    1
    23     1     2    2
    24     1     3   am
    25     3    26    1
    26     3     4    1
    27    26    27    1
    28    27    28    1
    29    28    29    1
    30    29    30    1
    31    30    31    1
    32    31    32    1
    33    32    34    1
    34    32    33    1
    35    34    35   ar
    36    34    43   ar
    37    35    36   ar
    38    35    47    1
    39    36    37   ar
    40    36    44    1
    41    37    38   ar
    42    38    39   ar
    43    38    43   ar
    44    39    40   ar
    45    40    41   ar
    46    41    42   ar
    47    42    43   ar
    48    44    45    1
    49    45    46    1
    50    46    47    1
    51    24    25    1
#	Name:			CHEMBL3221279
#	Creating user name:	trannguyen
#	Creation time:		Tue Feb  8 17:54:08 2022


#	Modifying user name:	trannguyen
#	Modification time:	Tue Feb  8 17:54:08 2022

@<TRIPOS>MOLECULE
CHEMBL3221279
 48 52 0 0 0
SMALL
GASTEIGER

@<TRIPOS>ATOM
      1 C           3.4288   63.2345   67.3775 C.2     1  UNL1        0.2242
      2 O           3.0094   64.2066   67.9962 O.2     1  UNL1       -0.2750
      3 N           3.1658   61.9294   67.7164 N.am    1  UNL1       -0.3043
      4 H           3.5465   61.1842   67.1429 H       1  UNL1        0.1494
      5 C           4.2883   63.3871   66.1465 C.3     1  UNL1        0.1062
      6 C           3.4294   63.3812   64.8914 C.3     1  UNL1        0.0993
      7 C           3.2035   65.8470   64.3971 C.2     1  UNL1        0.2471
      8 O           2.4104   66.0600   65.3081 O.2     1  UNL1       -0.2701
      9 N           3.6749   64.5834   64.1022 N.am    1  UNL1       -0.3003
     10 H           4.2505   64.4317   63.2907 H       1  UNL1        0.1498
     11 C           3.8914   68.2784   64.0575 C.ar    1  UNL1        0.0527
     12 C           4.3778   69.2764   63.1885 C.ar    1  UNL1        0.0148
     13 C           4.6981   69.0156   61.8567 C.ar    1  UNL1        0.0013
     14 C           4.5704   67.7300   61.3633 C.ar    1  UNL1        0.0002
     15 C           4.1083   66.7151   62.2008 C.ar    1  UNL1        0.0058
     16 C           3.7344   66.9706   63.5406 C.ar    1  UNL1        0.0667
     17 N           3.5724   68.6180   65.3925 N.pl3   1  UNL1       -0.3127
     18 H           2.6307   68.3484   65.6904 H       1  UNL1        0.1522
     19 C           3.9022   71.1527   69.7312 C.3     1  UNL1        0.0307
     20 C           4.4856   70.6284   68.4444 C.ar    1  UNL1       -0.0246
     21 C           5.7961   70.9924   68.1102 C.ar    1  UNL1       -0.0045
     22 C           6.3535   70.5899   66.9001 C.ar    1  UNL1        0.0009
     23 C           5.5947   69.8344   66.0078 C.ar    1  UNL1        0.0143
     24 C           4.2868   69.4227   66.3092 C.ar    1  UNL1        0.0440
     25 C           3.7399   69.7940   67.5685 C.ar    1  UNL1       -0.0124
     26 C           2.3904   69.2890   68.0117 C.3     1  UNL1        0.0320
     27 C           2.2809   61.5576   68.8016 C.3     1  UNL1        0.0894
     28 C           2.7730   60.3362   69.5792 C.3     1  UNL1        0.0212
     29 C           2.3104   60.3399   71.0398 C.3     1  UNL1        0.0018
     30 C           2.3639   58.9405   71.6606 C.3     1  UNL1        0.0018
     31 C           3.1040   58.9699   73.0041 C.3     1  UNL1        0.0212
     32 C           2.3222   59.6546   74.1281 C.3     1  UNL1        0.0870
     33 N           1.9606   58.7346   75.1877 N.pl3   1  UNL1       -0.3328
     34 H           2.0730   57.7734   74.8827 H       1  UNL1        0.1468
     35 C           1.0781   58.8259   76.2662 C.ar    1  UNL1        0.0431
     36 C          -0.2416   58.3162   76.3109 C.ar    1  UNL1        0.0045
     37 C          -0.9985   58.5597   77.4725 C.ar    1  UNL1        0.0561
     38 N          -0.5267   59.2082   78.5596 N.ar    1  UNL1       -0.2499
     39 C           0.6969   59.7290   78.5156 C.ar    1  UNL1        0.0820
     40 C           1.1256   60.4338   79.6346 C.ar    1  UNL1        0.0191
     41 C           2.3652   61.0680   79.6812 C.ar    1  UNL1        0.0015
     42 C           3.1957   61.0094   78.5768 C.ar    1  UNL1        0.0001
     43 C           2.7853   60.2933   77.4495 C.ar    1  UNL1        0.0027
     44 C           1.5375   59.6087   77.3922 C.ar    1  UNL1        0.0305
     45 C          -2.4207   58.0814   77.6320 C.3     1  UNL1        0.0455
     46 C          -3.1110   57.8048   76.3074 C.3     1  UNL1        0.0066
     47 C          -2.2274   56.8867   75.4873 C.3     1  UNL1        0.0052
     48 C          -0.8973   57.5732   75.1699 C.3     1  UNL1        0.0288
@<TRIPOS>BOND
     1    19    20    1
     2    20    21   ar
     3    20    25   ar
     4    21    22   ar
     5    22    23   ar
     6    23    24   ar
     7    24    17    1
     8    24    25   ar
     9    17    11    1
    10    17    18    1
    11    11    12   ar
    12    11    16   ar
    13    12    13   ar
    14    13    14   ar
    15    14    15   ar
    16    15    16   ar
    17    16     7    1
    18     7     8    2
    19     7     9   am
    20     9     6    1
    21     9    10    1
    22     6     5    1
    23     5     1    1
    24     1     2    2
    25     1     3   am
    26     3    27    1
    27     3     4    1
    28    27    28    1
    29    28    29    1
    30    29    30    1
    31    30    31    1
    32    31    32    1
    33    32    33    1
    34    33    35    1
    35    33    34    1
    36    35    36   ar
    37    35    44   ar
    38    36    37   ar
    39    36    48    1
    40    37    38   ar
    41    37    45    1
    42    38    39   ar
    43    39    40   ar
    44    39    44   ar
    45    40    41   ar
    46    41    42   ar
    47    42    43   ar
    48    43    44   ar
    49    45    46    1
    50    46    47    1
    51    47    48    1
    52    25    26    1
#	Name:			CHEMBL3221280
#	Creating user name:	trannguyen
#	Creation time:		Tue Feb  8 17:54:08 2022


#	Modifying user name:	trannguyen
#	Modification time:	Tue Feb  8 17:54:08 2022

@<TRIPOS>MOLECULE
CHEMBL3221280
 49 53 0 0 0
SMALL
GASTEIGER

@<TRIPOS>ATOM
      1 C           3.3944   61.6992   68.2687 C.2     1  UNL1        0.2225
      2 O           4.5468   61.2431   68.2948 O.2     1  UNL1       -0.2751
      3 N           2.3414   61.1508   68.9635 N.am    1  UNL1       -0.3043
      4 H           1.3943   61.3992   68.6827 H       1  UNL1        0.1494
      5 C           3.0358   62.9432   67.4771 C.3     1  UNL1        0.0868
      6 C           4.1571   63.3452   66.5155 C.3     1  UNL1        0.0308
      7 C           3.6739   63.3955   65.0699 C.3     1  UNL1        0.0902
      8 C           3.3775   65.7865   64.4553 C.2     1  UNL1        0.2471
      9 O           2.4635   65.9405   65.3067 O.2     1  UNL1       -0.2701
     10 N           4.1066   64.6010   64.3602 N.am    1  UNL1       -0.3008
     11 H           4.7870   64.4616   63.6332 H       1  UNL1        0.1497
     12 C           3.5550   68.2765   63.8897 C.ar    1  UNL1        0.0527
     13 C           3.8155   69.2634   62.9198 C.ar    1  UNL1        0.0148
     14 C           4.1270   68.9475   61.6018 C.ar    1  UNL1        0.0013
     15 C           4.2493   67.6224   61.2390 C.ar    1  UNL1        0.0002
     16 C           4.0382   66.6152   62.1858 C.ar    1  UNL1        0.0058
     17 C           3.6803   66.9133   63.5314 C.ar    1  UNL1        0.0667
     18 N           3.1973   68.7362   65.2108 N.pl3   1  UNL1       -0.3127
     19 H           2.1962   68.9052   65.3362 H       1  UNL1        0.1522
     20 C           4.2573   70.8889   69.6858 C.3     1  UNL1        0.0307
     21 C           4.5884   70.4899   68.2679 C.ar    1  UNL1       -0.0246
     22 C           5.8922   70.7327   67.8160 C.ar    1  UNL1       -0.0045
     23 C           6.2701   70.3828   66.5293 C.ar    1  UNL1        0.0009
     24 C           5.3301   69.8418   65.6588 C.ar    1  UNL1        0.0143
     25 C           4.0387   69.4840   66.0903 C.ar    1  UNL1        0.0440
     26 C           3.6723   69.7949   67.4244 C.ar    1  UNL1       -0.0124
     27 C           2.3912   69.2771   68.0258 C.3     1  UNL1        0.0320
     28 C           2.4911   59.9365   69.7419 C.3     1  UNL1        0.0894
     29 C           2.1923   60.1695   71.2298 C.3     1  UNL1        0.0212
     30 C           2.5443   59.0508   72.2273 C.3     1  UNL1        0.0018
     31 C           3.5898   59.3825   73.2953 C.3     1  UNL1        0.0018
     32 C           2.9590   59.9457   74.5658 C.3     1  UNL1        0.0212
     33 C           1.5950   59.3721   74.8462 C.3     1  UNL1        0.0870
     34 N           1.1332   59.7201   76.1911 N.pl3   1  UNL1       -0.3328
     35 H           1.1091   60.7218   76.3567 H       1  UNL1        0.1468
     36 C           1.4763   58.9508   77.3306 C.ar    1  UNL1        0.0431
     37 C           0.8315   57.7247   77.6423 C.ar    1  UNL1        0.0045
     38 C           1.1741   57.0649   78.8286 C.ar    1  UNL1        0.0561
     39 N           2.0916   57.5299   79.6956 N.ar    1  UNL1       -0.2499
     40 C           2.6695   58.7009   79.4518 C.ar    1  UNL1        0.0820
     41 C           3.5385   59.1469   80.4352 C.ar    1  UNL1        0.0191
     42 C           4.1873   60.3712   80.3404 C.ar    1  UNL1        0.0015
     43 C           3.9788   61.1570   79.2189 C.ar    1  UNL1        0.0001
     44 C           3.1185   60.7130   78.2043 C.ar    1  UNL1        0.0027
     45 C           2.4182   59.4758   78.2939 C.ar    1  UNL1        0.0305
     46 C           0.5764   55.7375   79.2195 C.3     1  UNL1        0.0455
     47 C          -0.7495   55.4196   78.5456 C.3     1  UNL1        0.0066
     48 C          -0.6514   55.7089   77.0714 C.3     1  UNL1        0.0052
     49 C          -0.2974   57.1578   76.8250 C.3     1  UNL1        0.0288
@<TRIPOS>BOND
     1    20    21    1
     2    21    22   ar
     3    21    26   ar
     4    22    23   ar
     5    23    24   ar
     6    24    25   ar
     7    25    18    1
     8    25    26   ar
     9    18    12    1
    10    18    19    1
    11    12    13   ar
    12    12    17   ar
    13    13    14   ar
    14    14    15   ar
    15    15    16   ar
    16    16    17   ar
    17    17     8    1
    18     8     9    2
    19     8    10   am
    20    10     7    1
    21    10    11    1
    22     7     6    1
    23     6     5    1
    24     5     1    1
    25     1     2    2
    26     1     3   am
    27     3    28    1
    28     3     4    1
    29    28    29    1
    30    29    30    1
    31    30    31    1
    32    31    32    1
    33    32    33    1
    34    33    34    1
    35    34    36    1
    36    34    35    1
    37    36    37   ar
    38    36    45   ar
    39    37    38   ar
    40    37    49    1
    41    38    39   ar
    42    38    46    1
    43    39    40   ar
    44    40    41   ar
    45    40    45   ar
    46    41    42   ar
    47    42    43   ar
    48    43    44   ar
    49    44    45   ar
    50    46    47    1
    51    47    48    1
    52    48    49    1
    53    26    27    1
#	Name:			CHEMBL3221282
#	Creating user name:	trannguyen
#	Creation time:		Tue Feb  8 17:54:08 2022


#	Modifying user name:	trannguyen
#	Modification time:	Tue Feb  8 17:54:08 2022

@<TRIPOS>MOLECULE
CHEMBL3221282
 48 52 0 0 0
SMALL
GASTEIGER

@<TRIPOS>ATOM
      1 C           3.6526   63.6594   66.3719 C.2     1  UNL1        0.2425
      2 O           3.2953   64.6917   66.9294 O.2     1  UNL1       -0.2733
      3 N           3.6986   62.4244   66.9966 N.am    1  UNL1       -0.3030
      4 H           4.1749   61.6676   66.5222 H       1  UNL1        0.1495
      5 C           4.0058   63.5545   64.8866 C.3     1  UNL1        0.1759
      6 C           4.4176   65.7976   63.9772 C.2     1  UNL1        0.2474
      7 O           5.5293   65.8342   64.4953 O.2     1  UNL1       -0.2701
      8 N           3.5949   64.6978   64.1054 N.am    1  UNL1       -0.2931
      9 H           2.6801   64.6624   63.6838 H       1  UNL1        0.1502
     10 C           3.3418   68.0679   63.6842 C.ar    1  UNL1        0.0527
     11 C           3.0009   69.1337   62.8273 C.ar    1  UNL1        0.0148
     12 C           3.1667   69.0483   61.4406 C.ar    1  UNL1        0.0013
     13 C           3.6889   67.8922   60.8773 C.ar    1  UNL1        0.0002
     14 C           4.0604   66.8288   61.7025 C.ar    1  UNL1        0.0058
     15 C           3.9272   66.9162   63.1036 C.ar    1  UNL1        0.0667
     16 N           3.2557   68.2246   65.0969 N.pl3   1  UNL1       -0.3127
     17 H           2.2696   68.2358   65.3978 H       1  UNL1        0.1522
     18 C           3.6932   70.8396   69.3428 C.3     1  UNL1        0.0307
     19 C           4.2337   70.3459   68.0275 C.ar    1  UNL1       -0.0246
     20 C           5.5204   70.7421   67.6397 C.ar    1  UNL1       -0.0045
     21 C           6.0524   70.3198   66.4258 C.ar    1  UNL1        0.0009
     22 C           5.3061   69.4882   65.5914 C.ar    1  UNL1        0.0143
     23 C           4.0322   69.0349   65.9657 C.ar    1  UNL1        0.0440
     24 C           3.4824   69.4804   67.1933 C.ar    1  UNL1       -0.0124
     25 C           2.0946   69.0618   67.6154 C.3     1  UNL1        0.0320
     26 C           3.4151   62.2459   68.4150 C.3     1  UNL1        0.0894
     27 C           2.3153   61.2008   68.6322 C.3     1  UNL1        0.0212
     28 C           2.7105   60.0593   69.5790 C.3     1  UNL1        0.0017
     29 C           2.2118   60.2582   71.0098 C.3     1  UNL1        0.0001
     30 C           2.2084   58.9540   71.8163 C.3     1  UNL1        0.0017
     31 C           3.1119   59.0713   73.0503 C.3     1  UNL1        0.0212
     32 C           2.4213   59.8122   74.2053 C.3     1  UNL1        0.0870
     33 N           2.0410   58.8418   75.2322 N.pl3   1  UNL1       -0.3328
     34 H           2.8852   58.4711   75.6582 H       1  UNL1        0.1468
     35 C           1.0895   59.0757   76.2610 C.ar    1  UNL1        0.0431
     36 C          -0.2068   58.5050   76.3006 C.ar    1  UNL1        0.0045
     37 C          -1.0383   58.8353   77.3839 C.ar    1  UNL1        0.0561
     38 N          -0.6462   59.5941   78.4292 N.ar    1  UNL1       -0.2499
     39 C           0.6052   60.0422   78.4657 C.ar    1  UNL1        0.0820
     40 C           0.9761   60.7452   79.6076 C.ar    1  UNL1        0.0191
     41 C           2.2619   61.2511   79.7808 C.ar    1  UNL1        0.0015
     42 C           3.2014   61.0520   78.7850 C.ar    1  UNL1        0.0001
     43 C           2.8451   60.3465   77.6303 C.ar    1  UNL1        0.0027
     44 C           1.5345   59.8191   77.4266 C.ar    1  UNL1        0.0305
     45 C          -2.4371   58.2922   77.5330 C.3     1  UNL1        0.0455
     46 C          -3.0245   57.7392   76.2461 C.3     1  UNL1        0.0066
     47 C          -2.0153   56.8077   75.6065 C.3     1  UNL1        0.0052
     48 C          -0.7429   57.5703   75.2432 C.3     1  UNL1        0.0288
@<TRIPOS>BOND
     1    18    19    1
     2    19    20   ar
     3    19    24   ar
     4    20    21   ar
     5    21    22   ar
     6    22    23   ar
     7    23    16    1
     8    23    24   ar
     9    16    10    1
    10    16    17    1
    11    10    11   ar
    12    10    15   ar
    13    11    12   ar
    14    12    13   ar
    15    13    14   ar
    16    14    15   ar
    17    15     6    1
    18     6     7    2
    19     6     8   am
    20     8     5    1
    21     8     9    1
    22     5     1    1
    23     1     2    2
    24     1     3   am
    25     3    26    1
    26     3     4    1
    27    26    27    1
    28    27    28    1
    29    28    29    1
    30    29    30    1
    31    30    31    1
    32    31    32    1
    33    32    33    1
    34    33    35    1
    35    33    34    1
    36    35    36   ar
    37    35    44   ar
    38    36    37   ar
    39    36    48    1
    40    37    38   ar
    41    37    45    1
    42    38    39   ar
    43    39    40   ar
    44    39    44   ar
    45    40    41   ar
    46    41    42   ar
    47    42    43   ar
    48    43    44   ar
    49    45    46    1
    50    46    47    1
    51    47    48    1
    52    24    25    1
#	Name:			CHEMBL3221283
#	Creating user name:	trannguyen
#	Creation time:		Tue Feb  8 17:54:08 2022


#	Modifying user name:	trannguyen
#	Modification time:	Tue Feb  8 17:54:08 2022

@<TRIPOS>MOLECULE
CHEMBL3221283
 49 53 0 0 0
SMALL
GASTEIGER

@<TRIPOS>ATOM
      1 C           3.4580   63.2299   67.3134 C.2     1  UNL1        0.2242
      2 O           3.0028   64.2493   67.8569 O.2     1  UNL1       -0.2750
      3 N           3.1520   61.9491   67.7168 N.am    1  UNL1       -0.3043
      4 H           3.6048   61.1706   67.2528 H       1  UNL1        0.1494
      5 C           4.3762   63.2684   66.1170 C.3     1  UNL1        0.1062
      6 C           3.6016   63.3824   64.8114 C.3     1  UNL1        0.0993
      7 C           3.3140   65.8337   64.3615 C.2     1  UNL1        0.2471
      8 O           2.5092   65.9874   65.2792 O.2     1  UNL1       -0.2701
      9 N           3.9183   64.6124   64.0978 N.am    1  UNL1       -0.3003
     10 H           4.7055   64.5687   63.4665 H       1  UNL1        0.1498
     11 C           3.7371   68.3319   63.9229 C.ar    1  UNL1        0.0527
     12 C           4.1047   69.3260   62.9916 C.ar    1  UNL1        0.0148
     13 C           4.4549   69.0243   61.6761 C.ar    1  UNL1        0.0013
     14 C           4.4277   67.7073   61.2473 C.ar    1  UNL1        0.0002
     15 C           4.0393   66.7002   62.1305 C.ar    1  UNL1        0.0058
     16 C           3.7116   66.9845   63.4762 C.ar    1  UNL1        0.0667
     17 N           3.4272   68.7358   65.2482 N.pl3   1  UNL1       -0.3127
     18 H           2.4252   68.8412   65.4258 H       1  UNL1        0.1522
     19 C           3.8420   71.1594   69.6072 C.3     1  UNL1        0.0307
     20 C           4.4576   70.5692   68.3654 C.ar    1  UNL1       -0.0246
     21 C           5.7843   70.8886   68.0569 C.ar    1  UNL1       -0.0045
     22 C           6.3415   70.4711   66.8562 C.ar    1  UNL1        0.0009
     23 C           5.5563   69.7901   65.9249 C.ar    1  UNL1        0.0143
     24 C           4.2244   69.4347   66.1994 C.ar    1  UNL1        0.0440
     25 C           3.7072   69.7515   67.4787 C.ar    1  UNL1       -0.0124
     26 C           2.3883   69.1914   67.9504 C.3     1  UNL1        0.0320
     27 C           2.2921   61.6530   68.8480 C.3     1  UNL1        0.0894
     28 C           2.7022   60.3608   69.5505 C.3     1  UNL1        0.0212
     29 C           2.1642   60.3372   70.9798 C.3     1  UNL1        0.0017
     30 C           2.5032   59.0320   71.7002 C.3     1  UNL1        0.0001
     31 C           3.3187   59.2553   72.9765 C.3     1  UNL1        0.0017
     32 C           2.4733   59.1709   74.2556 C.3     1  UNL1        0.0212
     33 C           2.6453   60.4281   75.1007 C.3     1  UNL1        0.0870
     34 N           1.7135   60.4489   76.2331 N.pl3   1  UNL1       -0.3328
     35 H           0.7582   60.5048   75.8950 H       1  UNL1        0.1468
     36 C           1.8367   59.5750   77.3425 C.ar    1  UNL1        0.0431
     37 C           0.9394   58.4727   77.4618 C.ar    1  UNL1        0.0045
     38 C           1.0518   57.6399   78.5852 C.ar    1  UNL1        0.0561
     39 N           2.0511   57.7514   79.4812 N.ar    1  UNL1       -0.2499
     40 C           2.8662   58.8043   79.4088 C.ar    1  UNL1        0.0820
     41 C           3.8424   58.9076   80.3905 C.ar    1  UNL1        0.0191
     42 C           4.6964   60.0052   80.4721 C.ar    1  UNL1        0.0015
     43 C           4.5194   61.0594   79.5962 C.ar    1  UNL1        0.0001
     44 C           3.5318   60.9717   78.6165 C.ar    1  UNL1        0.0027
     45 C           2.7515   59.8036   78.4211 C.ar    1  UNL1        0.0305
     46 C           0.0666   56.5412   78.8891 C.3     1  UNL1        0.0455
     47 C          -1.2456   56.6915   78.1336 C.3     1  UNL1        0.0066
     48 C          -0.9422   56.9054   76.6610 C.3     1  UNL1        0.0052
     49 C          -0.1604   58.2079   76.4508 C.3     1  UNL1        0.0288
@<TRIPOS>BOND
     1    19    20    1
     2    20    21   ar
     3    20    25   ar
     4    21    22   ar
     5    22    23   ar
     6    23    24   ar
     7    24    17    1
     8    24    25   ar
     9    17    11    1
    10    17    18    1
    11    11    12   ar
    12    11    16   ar
    13    12    13   ar
    14    13    14   ar
    15    14    15   ar
    16    15    16   ar
    17    16     7    1
    18     7     8    2
    19     7     9   am
    20     9     6    1
    21     9    10    1
    22     6     5    1
    23     5     1    1
    24     1     2    2
    25     1     3   am
    26     3    27    1
    27     3     4    1
    28    27    28    1
    29    28    29    1
    30    29    30    1
    31    30    31    1
    32    31    32    1
    33    32    33    1
    34    33    34    1
    35    34    36    1
    36    34    35    1
    37    36    37   ar
    38    36    45   ar
    39    37    38   ar
    40    37    49    1
    41    38    39   ar
    42    38    46    1
    43    39    40   ar
    44    40    41   ar
    45    40    45   ar
    46    41    42   ar
    47    42    43   ar
    48    43    44   ar
    49    44    45   ar
    50    46    47    1
    51    47    48    1
    52    48    49    1
    53    25    26    1
#	Name:			CHEMBL3221284
#	Creating user name:	trannguyen
#	Creation time:		Tue Feb  8 17:54:08 2022


#	Modifying user name:	trannguyen
#	Modification time:	Tue Feb  8 17:54:08 2022

@<TRIPOS>MOLECULE
CHEMBL3221284
 50 54 0 0 0
SMALL
GASTEIGER

@<TRIPOS>ATOM
      1 C           2.6592   60.5454   70.4879 C.2     1  UNL1        0.2225
      2 O           2.9269   61.3398   71.3862 O.2     1  UNL1       -0.2751
      3 N           2.7420   60.8438   69.1376 N.am    1  UNL1       -0.3043
      4 H           2.6116   60.1050   68.4517 H       1  UNL1        0.1494
      5 C           2.1886   59.1207   70.7596 C.3     1  UNL1        0.0868
      6 C           1.7241   58.9228   72.2072 C.3     1  UNL1        0.0308
      7 C           2.7763   59.3740   73.2239 C.3     1  UNL1        0.0902
      8 C           1.7695   59.0976   75.4945 C.2     1  UNL1        0.2471
      9 O           1.9623   57.8964   75.5385 O.2     1  UNL1       -0.2701
     10 N           2.1757   59.9169   74.4370 N.am    1  UNL1       -0.3008
     11 H           2.1677   60.9266   74.5427 H       1  UNL1        0.1497
     12 C           0.3258   59.1636   77.6118 C.ar    1  UNL1        0.0527
     13 C          -0.0572   59.9186   78.7465 C.ar    1  UNL1        0.0148
     14 C           0.2074   61.2896   78.8619 C.ar    1  UNL1        0.0013
     15 C           0.8657   61.9473   77.8354 C.ar    1  UNL1        0.0002
     16 C           1.3195   61.2245   76.7352 C.ar    1  UNL1        0.0058
     17 C           1.1087   59.8279   76.6350 C.ar    1  UNL1        0.0667
     18 N          -0.1255   57.8159   77.4645 N.pl3   1  UNL1       -0.3127
     19 H           0.3924   57.1387   78.0117 H       1  UNL1        0.1522
     20 C          -2.7217   53.9053   75.6704 C.3     1  UNL1        0.0307
     21 C          -2.4866   55.3818   75.8497 C.ar    1  UNL1       -0.0246
     22 C          -3.5325   56.2425   75.4856 C.ar    1  UNL1       -0.0045
     23 C          -3.3925   57.6120   75.6378 C.ar    1  UNL1        0.0009
     24 C          -2.2298   58.1270   76.2110 C.ar    1  UNL1        0.0143
     25 C          -1.1668   57.3008   76.6352 C.ar    1  UNL1        0.0440
     26 C          -1.2599   55.9150   76.3405 C.ar    1  UNL1       -0.0124
     27 C          -0.0930   54.9874   76.5662 C.3     1  UNL1        0.0320
     28 C           3.2928   62.1025   68.6694 C.3     1  UNL1        0.0894
     29 C           3.3106   62.2020   67.1414 C.3     1  UNL1        0.0212
     30 C           3.8205   63.5644   66.6401 C.3     1  UNL1        0.0017
     31 C           3.5748   63.7529   65.1410 C.3     1  UNL1        0.0001
     32 C           2.8836   65.0741   64.7946 C.3     1  UNL1        0.0017
     33 C           2.6395   65.9360   66.0474 C.3     1  UNL1        0.0212
     34 C           1.5188   66.9605   65.8572 C.3     1  UNL1        0.0870
     35 N           1.9907   68.3386   66.0078 N.pl3   1  UNL1       -0.3328
     36 H           1.6192   68.7387   66.8575 H       1  UNL1        0.1468
     37 C           3.2479   68.8593   65.6489 C.ar    1  UNL1        0.0431
     38 C           3.7759   68.8307   64.3311 C.ar    1  UNL1        0.0045
     39 C           5.0440   69.3916   64.1092 C.ar    1  UNL1        0.0561
     40 N           5.7370   70.0643   65.0552 N.ar    1  UNL1       -0.2499
     41 C           5.2264   70.1640   66.2774 C.ar    1  UNL1        0.0820
     42 C           5.9757   70.8911   67.1955 C.ar    1  UNL1        0.0191
     43 C           5.5796   71.0421   68.5214 C.ar    1  UNL1        0.0015
     44 C           4.3950   70.4621   68.9396 C.ar    1  UNL1        0.0001
     45 C           3.6161   69.7485   68.0232 C.ar    1  UNL1        0.0027
     46 C           4.0014   69.5751   66.6608 C.ar    1  UNL1        0.0305
     47 C           5.7464   69.3415   62.7764 C.3     1  UNL1        0.0455
     48 C           5.1051   68.3937   61.7760 C.3     1  UNL1        0.0066
     49 C           3.6055   68.6213   61.7743 C.3     1  UNL1        0.0052
     50 C           3.0365   68.2504   63.1455 C.3     1  UNL1        0.0288
@<TRIPOS>BOND
     1    20    21    1
     2    21    22   ar
     3    21    26   ar
     4    22    23   ar
     5    23    24   ar
     6    24    25   ar
     7    25    18    1
     8    25    26   ar
     9    18    12    1
    10    18    19    1
    11    12    13   ar
    12    12    17   ar
    13    13    14   ar
    14    14    15   ar
    15    15    16   ar
    16    16    17   ar
    17    17     8    1
    18     8     9    2
    19     8    10   am
    20    10     7    1
    21    10    11    1
    22     7     6    1
    23     6     5    1
    24     5     1    1
    25     1     2    2
    26     1     3   am
    27     3    28    1
    28     3     4    1
    29    28    29    1
    30    29    30    1
    31    30    31    1
    32    31    32    1
    33    32    33    1
    34    33    34    1
    35    34    35    1
    36    35    37    1
    37    35    36    1
    38    37    38   ar
    39    37    46   ar
    40    38    39   ar
    41    38    50    1
    42    39    40   ar
    43    39    47    1
    44    40    41   ar
    45    41    42   ar
    46    41    46   ar
    47    42    43   ar
    48    43    44   ar
    49    44    45   ar
    50    45    46   ar
    51    47    48    1
    52    48    49    1
    53    49    50    1
    54    26    27    1
#	Name:			CHEMBL3221285
#	Creating user name:	trannguyen
#	Creation time:		Tue Feb  8 17:54:08 2022


#	Modifying user name:	trannguyen
#	Modification time:	Tue Feb  8 17:54:08 2022

@<TRIPOS>MOLECULE
CHEMBL3221285
 52 56 0 0 0
SMALL
GASTEIGER

@<TRIPOS>ATOM
      1 C           2.5670   60.1922   70.6000 C.2     1  UNL1        0.2225
      2 O           2.5630   61.2280   71.2616 O.2     1  UNL1       -0.2751
      3 N           2.4916   58.9297   71.1491 N.am    1  UNL1       -0.3043
      4 H           2.5745   58.1264   70.5401 H       1  UNL1        0.1494
      5 C           2.7271   60.2075   69.0932 C.3     1  UNL1        0.0850
      6 C           2.5669   61.6024   68.4956 C.3     1  UNL1        0.0096
      7 C           3.7719   62.0191   67.6433 C.3     1  UNL1        0.0023
      8 C           3.6864   63.4317   67.0318 C.3     1  UNL1        0.0213
      9 C           3.6913   63.3487   65.4945 C.3     1  UNL1        0.0897
     10 C           3.2412   65.7084   64.8151 C.2     1  UNL1        0.2471
     11 O           2.1080   65.7444   65.3333 O.2     1  UNL1       -0.2701
     12 N           4.0570   64.5904   64.8175 N.am    1  UNL1       -0.3008
     13 H           5.0391   64.7608   64.6188 H       1  UNL1        0.1497
     14 C           3.5503   68.2188   64.3425 C.ar    1  UNL1        0.0527
     15 C           3.8455   69.1720   63.3282 C.ar    1  UNL1        0.0148
     16 C           4.2361   68.8079   62.0288 C.ar    1  UNL1        0.0013
     17 C           4.3693   67.4679   61.7032 C.ar    1  UNL1        0.0002
     18 C           4.1078   66.5038   62.6784 C.ar    1  UNL1        0.0058
     19 C           3.7241   66.8577   64.0055 C.ar    1  UNL1        0.0667
     20 N           3.0971   68.7391   65.5842 N.pl3   1  UNL1       -0.3127
     21 H           2.0811   68.7526   65.6347 H       1  UNL1        0.1522
     22 C           7.1702   70.5617   67.8329 C.3     1  UNL1        0.0307
     23 C           5.6685   70.4018   67.7849 C.ar    1  UNL1       -0.0246
     24 C           4.8866   70.7827   68.8714 C.ar    1  UNL1       -0.0045
     25 C           3.5152   70.5244   68.8583 C.ar    1  UNL1        0.0009
     26 C           2.9181   69.8224   67.7960 C.ar    1  UNL1        0.0143
     27 C           3.6553   69.4625   66.6687 C.ar    1  UNL1        0.0440
     28 C           5.0201   69.8739   66.6348 C.ar    1  UNL1       -0.0124
     29 C           5.7920   69.9440   65.3411 C.3     1  UNL1        0.0320
     30 C           2.3998   58.6892   72.5787 C.3     1  UNL1        0.0894
     31 C           3.6774   59.0694   73.3300 C.3     1  UNL1        0.0212
     32 C           3.4281   60.1243   74.4096 C.3     1  UNL1        0.0017
     33 C           2.1679   59.8142   75.2106 C.3     1  UNL1        0.0001
     34 C           1.8556   60.9121   76.2234 C.3     1  UNL1        0.0017
     35 C           1.2886   60.3030   77.5146 C.3     1  UNL1        0.0212
     36 C           1.4523   58.7947   77.5119 C.3     1  UNL1        0.0870
     37 N           0.3570   58.1257   78.2273 N.pl3   1  UNL1       -0.3328
     38 H           0.6603   57.7752   79.1369 H       1  UNL1        0.1468
     39 C          -0.4555   57.1428   77.5897 C.ar    1  UNL1        0.0431
     40 C          -1.6274   57.4540   76.8578 C.ar    1  UNL1        0.0045
     41 C          -2.3409   56.4028   76.2693 C.ar    1  UNL1        0.0561
     42 N          -1.9086   55.1260   76.2509 N.ar    1  UNL1       -0.2499
     43 C          -0.7919   54.8155   76.9061 C.ar    1  UNL1        0.0820
     44 C          -0.4195   53.4775   76.8718 C.ar    1  UNL1        0.0191
     45 C           0.6816   52.9994   77.5743 C.ar    1  UNL1        0.0015
     46 C           1.4109   53.8822   78.3557 C.ar    1  UNL1        0.0001
     47 C           1.0602   55.2427   78.3878 C.ar    1  UNL1        0.0027
     48 C          -0.0308   55.7604   77.6327 C.ar    1  UNL1        0.0305
     49 C          -3.6633   56.6219   75.5776 C.3     1  UNL1        0.0455
     50 C          -4.3334   57.9370   75.9526 C.3     1  UNL1        0.0066
     51 C          -3.3346   59.0617   75.7895 C.3     1  UNL1        0.0052
     52 C          -2.1808   58.8498   76.7455 C.3     1  UNL1        0.0288
@<TRIPOS>BOND
     1    22    23    1
     2    23    24   ar
     3    23    28   ar
     4    24    25   ar
     5    25    26   ar
     6    26    27   ar
     7    27    20    1
     8    27    28   ar
     9    20    14    1
    10    20    21    1
    11    14    15   ar
    12    14    19   ar
    13    15    16   ar
    14    16    17   ar
    15    17    18   ar
    16    18    19   ar
    17    19    10    1
    18    10    11    2
    19    10    12   am
    20    12     9    1
    21    12    13    1
    22     9     8    1
    23     8     7    1
    24     7     6    1
    25     6     5    1
    26     5     1    1
    27     1     2    2
    28     1     3   am
    29     3    30    1
    30     3     4    1
    31    30    31    1
    32    31    32    1
    33    32    33    1
    34    33    34    1
    35    34    35    1
    36    35    36    1
    37    36    37    1
    38    37    39    1
    39    37    38    1
    40    39    40   ar
    41    39    48   ar
    42    40    41   ar
    43    40    52    1
    44    41    42   ar
    45    41    49    1
    46    42    43   ar
    47    43    44   ar
    48    43    48   ar
    49    44    45   ar
    50    45    46   ar
    51    46    47   ar
    52    47    48   ar
    53    49    50    1
    54    50    51    1
    55    51    52    1
    56    28    29    1
#	Name:			CHEMBL3221286
#	Creating user name:	trannguyen
#	Creation time:		Tue Feb  8 17:54:08 2022


#	Modifying user name:	trannguyen
#	Modification time:	Tue Feb  8 17:54:08 2022

@<TRIPOS>MOLECULE
CHEMBL3221286
 49 53 0 0 0
SMALL
GASTEIGER

@<TRIPOS>ATOM
      1 C           1.3568   66.4620   70.1393 C.2     1  UNL1        0.2425
      2 O           1.8706   65.5370   69.5130 O.2     1  UNL1       -0.2733
      3 N           0.8025   66.2974   71.3962 N.am    1  UNL1       -0.3030
      4 H           0.2418   67.0511   71.7640 H       1  UNL1        0.1495
      5 C           1.1007   67.8384   69.4915 C.3     1  UNL1        0.1759
      6 C           2.4158   69.1668   67.7810 C.2     1  UNL1        0.2474
      7 O           1.4468   69.2869   67.0011 O.2     1  UNL1       -0.2701
      8 N           2.3198   68.4996   68.9997 N.am    1  UNL1       -0.2931
      9 H           3.0852   68.5302   69.6540 H       1  UNL1        0.1502
     10 C           4.3587   69.6930   66.1180 C.ar    1  UNL1        0.0527
     11 C           5.5805   70.3650   65.9421 C.ar    1  UNL1        0.0148
     12 C           6.3054   70.9022   66.9996 C.ar    1  UNL1        0.0013
     13 C           5.7756   70.8608   68.2716 C.ar    1  UNL1        0.0002
     14 C           4.5157   70.3034   68.4769 C.ar    1  UNL1        0.0058
     15 C           3.7663   69.7348   67.4162 C.ar    1  UNL1        0.0667
     16 N           3.7266   69.1158   64.9874 N.pl3   1  UNL1       -0.3127
     17 H           2.7350   69.3704   64.9356 H       1  UNL1        0.1522
     18 C           3.3373   64.1924   64.3928 C.3     1  UNL1        0.0307
     19 C           3.7808   65.5358   63.8803 C.ar    1  UNL1       -0.0246
     20 C           4.5707   65.5969   62.7269 C.ar    1  UNL1       -0.0045
     21 C           5.0464   66.8198   62.2783 C.ar    1  UNL1        0.0009
     22 C           4.7940   67.9802   63.0205 C.ar    1  UNL1        0.0143
     23 C           4.0003   67.9681   64.1839 C.ar    1  UNL1        0.0440
     24 C           3.4241   66.7314   64.5596 C.ar    1  UNL1       -0.0124
     25 C           2.3906   66.6666   65.6586 C.3     1  UNL1        0.0320
     26 C           0.9087   65.0698   72.1661 C.3     1  UNL1        0.0894
     27 C           0.7580   65.2929   73.6771 C.3     1  UNL1        0.0212
     28 C           0.3507   64.0366   74.4663 C.3     1  UNL1        0.0017
     29 C          -0.5825   64.3877   75.6346 C.3     1  UNL1        0.0001
     30 C          -0.8944   63.1856   76.5366 C.3     1  UNL1        0.0001
     31 C          -1.8453   63.5307   77.6923 C.3     1  UNL1        0.0017
     32 C          -1.7539   62.5366   78.8755 C.3     1  UNL1        0.0212
     33 C          -2.6427   61.3302   78.6147 C.3     1  UNL1        0.0870
     34 N          -2.0288   60.0192   78.8272 N.pl3   1  UNL1       -0.3328
     35 H          -1.5283   59.9485   79.7095 H       1  UNL1        0.1468
     36 C          -1.3205   59.3530   77.7751 C.ar    1  UNL1        0.0431
     37 C          -2.0185   58.3513   77.0232 C.ar    1  UNL1        0.0045
     38 C          -1.3663   57.7769   75.9215 C.ar    1  UNL1        0.0561
     39 N          -0.1586   58.1822   75.4811 N.ar    1  UNL1       -0.2499
     40 C           0.5095   59.1070   76.1682 C.ar    1  UNL1        0.0820
     41 C           1.7645   59.4441   75.6672 C.ar    1  UNL1        0.0191
     42 C           2.6189   60.3358   76.3113 C.ar    1  UNL1        0.0015
     43 C           2.2203   60.8883   77.5017 C.ar    1  UNL1        0.0001
     44 C           0.9632   60.5675   78.0000 C.ar    1  UNL1        0.0027
     45 C           0.0242   59.7079   77.3489 C.ar    1  UNL1        0.0305
     46 C          -1.9661   56.6641   75.0990 C.3     1  UNL1        0.0455
     47 C          -3.0165   55.8723   75.8581 C.3     1  UNL1        0.0066
     48 C          -4.0422   56.8470   76.4134 C.3     1  UNL1        0.0052
     49 C          -3.4000   57.8405   77.4026 C.3     1  UNL1        0.0288
@<TRIPOS>BOND
     1    18    19    1
     2    19    20   ar
     3    19    24   ar
     4    20    21   ar
     5    21    22   ar
     6    22    23   ar
     7    23    16    1
     8    23    24   ar
     9    16    10    1
    10    16    17    1
    11    10    11   ar
    12    10    15   ar
    13    11    12   ar
    14    12    13   ar
    15    13    14   ar
    16    14    15   ar
    17    15     6    1
    18     6     7    2
    19     6     8   am
    20     8     5    1
    21     8     9    1
    22     5     1    1
    23     1     2    2
    24     1     3   am
    25     3    26    1
    26     3     4    1
    27    26    27    1
    28    27    28    1
    29    28    29    1
    30    29    30    1
    31    30    31    1
    32    31    32    1
    33    32    33    1
    34    33    34    1
    35    34    36    1
    36    34    35    1
    37    36    37   ar
    38    36    45   ar
    39    37    38   ar
    40    37    49    1
    41    38    39   ar
    42    38    46    1
    43    39    40   ar
    44    40    41   ar
    45    40    45   ar
    46    41    42   ar
    47    42    43   ar
    48    43    44   ar
    49    44    45   ar
    50    46    47    1
    51    47    48    1
    52    48    49    1
    53    24    25    1
#	Name:			CHEMBL3221287
#	Creating user name:	trannguyen
#	Creation time:		Tue Feb  8 17:54:08 2022


#	Modifying user name:	trannguyen
#	Modification time:	Tue Feb  8 17:54:08 2022

@<TRIPOS>MOLECULE
CHEMBL3221287
 50 54 0 0 0
SMALL
GASTEIGER

@<TRIPOS>ATOM
      1 C           3.6698   63.4814   66.7403 C.2     1  UNL1        0.2242
      2 O           3.3322   64.4756   67.3637 O.2     1  UNL1       -0.2750
      3 N           3.7600   62.2218   67.3044 N.am    1  UNL1       -0.3043
      4 H           4.0040   61.4259   66.7301 H       1  UNL1        0.1494
      5 C           3.3713   61.9893   68.6759 C.3     1  UNL1        0.0894
      6 C           2.2005   61.0144   68.7559 C.3     1  UNL1        0.0212
      7 C           2.4885   59.8449   69.6998 C.3     1  UNL1        0.0017
      8 C           2.1332   60.1324   71.1653 C.3     1  UNL1        0.0001
      9 C           2.4515   59.0014   72.1600 C.3     1  UNL1        0.0001
     10 C           3.5382   59.3541   73.1894 C.3     1  UNL1        0.0017
     11 C           2.9485   59.8420   74.5260 C.3     1  UNL1        0.0212
     12 C           1.5256   59.3137   74.7774 C.3     1  UNL1        0.0870
     13 N           1.1115   59.5412   76.1599 N.pl3   1  UNL1       -0.3328
     14 H           1.0372   60.5340   76.3655 H       1  UNL1        0.1468
     15 C           1.4260   58.7927   77.3107 C.ar    1  UNL1        0.0431
     16 C           2.3037   59.4150   78.2643 C.ar    1  UNL1        0.0045
     17 C           2.6344   58.7069   79.4237 C.ar    1  UNL1        0.0561
     18 N           2.0991   57.5119   79.7332 N.ar    1  UNL1       -0.2499
     19 C           1.2534   56.9342   78.8817 C.ar    1  UNL1        0.0820
     20 C           0.7654   55.6973   79.2893 C.ar    1  UNL1        0.0191
     21 C          -0.0957   54.9341   78.5081 C.ar    1  UNL1        0.0015
     22 C          -0.4759   55.4197   77.2792 C.ar    1  UNL1        0.0001
     23 C          -0.0047   56.6676   76.8642 C.ar    1  UNL1        0.0027
     24 C           0.8703   57.4930   77.6405 C.ar    1  UNL1        0.0305
     25 C           3.6279   59.2152   80.4359 C.3     1  UNL1        0.0455
     26 C           4.6116   60.2024   79.8300 C.3     1  UNL1        0.0066
     27 C           3.8239   61.3231   79.1730 C.3     1  UNL1        0.0052
     28 C           2.9243   60.7895   78.0418 C.3     1  UNL1        0.0288
     29 C           4.0654   63.5022   65.2783 C.3     1  UNL1        0.1062
     30 C           3.0196   64.2020   64.4194 C.3     1  UNL1        0.0993
     31 C           3.1369   66.6849   64.0987 C.2     1  UNL1        0.2471
     32 O           2.3255   66.9291   65.0071 O.2     1  UNL1       -0.2701
     33 N           3.4767   65.3986   63.7428 N.am    1  UNL1       -0.3003
     34 H           4.1603   65.2170   63.0248 H       1  UNL1        0.1498
     35 C           4.8614   68.5519   63.9411 C.ar    1  UNL1        0.0527
     36 C           5.5240   69.4794   63.1168 C.ar    1  UNL1        0.0148
     37 C           5.0876   69.7859   61.8304 C.ar    1  UNL1        0.0013
     38 C           3.9927   69.1296   61.3065 C.ar    1  UNL1        0.0002
     39 C           3.3636   68.1427   62.0598 C.ar    1  UNL1        0.0058
     40 C           3.7988   67.8098   63.3659 C.ar    1  UNL1        0.0667
     41 N           5.3208   68.3892   65.2903 N.pl3   1  UNL1       -0.3127
     42 H           5.0128   67.4889   65.6835 H       1  UNL1        0.1522
     43 C           3.4984   71.2557   69.0457 C.3     1  UNL1        0.0307
     44 C           4.5927   70.7951   68.1205 C.ar    1  UNL1       -0.0246
     45 C           5.8760   71.3278   68.3131 C.ar    1  UNL1       -0.0045
     46 C           6.9165   70.9785   67.4661 C.ar    1  UNL1        0.0009
     47 C           6.6883   70.0716   66.4348 C.ar    1  UNL1        0.0143
     48 C           5.4431   69.4287   66.2638 C.ar    1  UNL1        0.0440
     49 C           4.3643   69.8324   67.0923 C.ar    1  UNL1       -0.0124
     50 C           2.9779   69.2451   66.9598 C.3     1  UNL1        0.0320
@<TRIPOS>BOND
     1    43    44    1
     2    44    45   ar
     3    44    49   ar
     4    45    46   ar
     5    46    47   ar
     6    47    48   ar
     7    48    41    1
     8    48    49   ar
     9    41    35    1
    10    41    42    1
    11    35    36   ar
    12    35    40   ar
    13    36    37   ar
    14    37    38   ar
    15    38    39   ar
    16    39    40   ar
    17    40    31    1
    18    31    32    2
    19    31    33   am
    20    33    30    1
    21    33    34    1
    22    30    29    1
    23    29     1    1
    24     1     2    2
    25     1     3   am
    26     3     5    1
    27     3     4    1
    28     5     6    1
    29     6     7    1
    30     7     8    1
    31     8     9    1
    32     9    10    1
    33    10    11    1
    34    11    12    1
    35    12    13    1
    36    13    15    1
    37    13    14    1
    38    15    16   ar
    39    15    24   ar
    40    16    17   ar
    41    16    28    1
    42    17    18   ar
    43    17    25    1
    44    18    19   ar
    45    19    20   ar
    46    19    24   ar
    47    20    21   ar
    48    21    22   ar
    49    22    23   ar
    50    23    24   ar
    51    25    26    1
    52    26    27    1
    53    27    28    1
    54    49    50    1
#	Name:			CHEMBL3221288
#	Creating user name:	trannguyen
#	Creation time:		Tue Feb  8 17:54:08 2022


#	Modifying user name:	trannguyen
#	Modification time:	Tue Feb  8 17:54:08 2022

@<TRIPOS>MOLECULE
CHEMBL3221288
 51 55 0 0 0
SMALL
GASTEIGER

@<TRIPOS>ATOM
      1 C          -1.0563   63.1390   76.2909 C.2     1  UNL1        0.2225
      2 O          -1.1523   63.1321   75.0933 O.2     1  UNL1       -0.2751
      3 N          -0.0351   62.5293   77.0168 N.am    1  UNL1       -0.3043
      4 H          -0.1686   62.3869   78.0046 H       1  UNL1        0.1494
      5 C          -2.0773   63.8217   77.1990 C.3     1  UNL1        0.0868
      6 C          -1.7970   63.7179   78.6987 C.3     1  UNL1        0.0308
      7 C          -2.8453   62.8494   79.3956 C.3     1  UNL1        0.0902
      8 C          -5.1657   62.0628   79.1026 C.2     1  UNL1        0.2471
      9 O          -5.3083   61.9133   80.3062 O.2     1  UNL1       -0.2701
     10 N          -3.9690   62.5398   78.5320 N.am    1  UNL1       -0.3008
     11 H          -3.8580   62.5786   77.5452 H       1  UNL1        0.1497
     12 C          -6.7840   60.3000   78.1869 C.ar    1  UNL1        0.0527
     13 C          -7.5721   59.8979   77.0780 C.ar    1  UNL1        0.0148
     14 C          -7.8028   60.7292   75.9762 C.ar    1  UNL1        0.0013
     15 C          -7.2538   62.0004   75.9429 C.ar    1  UNL1        0.0002
     16 C          -6.4500   62.4169   77.0029 C.ar    1  UNL1        0.0058
     17 C          -6.2115   61.5931   78.1278 C.ar    1  UNL1        0.0667
     18 N          -6.6588   59.3627   79.2402 N.pl3   1  UNL1       -0.3127
     19 H          -7.2539   59.5589   80.0380 H       1  UNL1        0.1522
     20 C          -5.0476   54.6369   78.5638 C.3     1  UNL1        0.0307
     21 C          -4.9871   55.9845   79.2424 C.ar    1  UNL1       -0.0246
     22 C          -3.9085   56.2411   80.0949 C.ar    1  UNL1       -0.0045
     23 C          -3.7342   57.5069   80.6466 C.ar    1  UNL1        0.0009
     24 C          -4.6253   58.5436   80.3433 C.ar    1  UNL1        0.0143
     25 C          -5.7351   58.3237   79.5177 C.ar    1  UNL1        0.0440
     26 C          -5.9218   57.0225   78.9700 C.ar    1  UNL1       -0.0124
     27 C          -7.0454   56.7537   77.9989 C.3     1  UNL1        0.0320
     28 C           0.9284   61.6924   76.3471 C.3     1  UNL1        0.0894
     29 C           1.1556   60.3883   77.1066 C.3     1  UNL1        0.0212
     30 C           2.5121   60.4597   77.8086 C.3     1  UNL1        0.0017
     31 C           2.4148   60.8486   79.2875 C.3     1  UNL1        0.0001
     32 C           1.7274   59.7362   80.1041 C.3     1  UNL1        0.0001
     33 C           2.5163   58.4110   80.1397 C.3     1  UNL1        0.0017
     34 C           1.5968   57.1739   80.0022 C.3     1  UNL1        0.0212
     35 C           0.9630   57.0183   78.6001 C.3     1  UNL1        0.0870
     36 N          -0.4552   56.6331   78.7005 N.pl3   1  UNL1       -0.3328
     37 H          -0.9327   57.1776   79.4075 H       1  UNL1        0.1468
     38 C          -1.3217   56.2737   77.6340 C.ar    1  UNL1        0.0431
     39 C          -1.4577   54.9500   77.1258 C.ar    1  UNL1        0.0045
     40 C          -2.4049   54.7115   76.1150 C.ar    1  UNL1        0.0561
     41 N          -3.2311   55.6602   75.6186 N.ar    1  UNL1       -0.2499
     42 C          -3.1513   56.9067   76.1016 C.ar    1  UNL1        0.0820
     43 C          -4.0361   57.8499   75.5664 C.ar    1  UNL1        0.0191
     44 C          -4.0406   59.1867   75.9653 C.ar    1  UNL1        0.0015
     45 C          -3.1581   59.5921   76.9487 C.ar    1  UNL1        0.0001
     46 C          -2.2806   58.6590   77.5196 C.ar    1  UNL1        0.0027
     47 C          -2.2297   57.2884   77.1114 C.ar    1  UNL1        0.0305
     48 C          -2.6677   53.3235   75.5786 C.3     1  UNL1        0.0455
     49 C          -1.4726   52.3908   75.6942 C.3     1  UNL1        0.0066
     50 C          -0.9879   52.3828   77.1300 C.3     1  UNL1        0.0052
     51 C          -0.6349   53.7865   77.6266 C.3     1  UNL1        0.0288
@<TRIPOS>BOND
     1    20    21    1
     2    21    22   ar
     3    21    26   ar
     4    22    23   ar
     5    23    24   ar
     6    24    25   ar
     7    25    18    1
     8    25    26   ar
     9    18    12    1
    10    18    19    1
    11    12    13   ar
    12    12    17   ar
    13    13    14   ar
    14    14    15   ar
    15    15    16   ar
    16    16    17   ar
    17    17     8    1
    18     8     9    2
    19     8    10   am
    20    10     7    1
    21    10    11    1
    22     7     6    1
    23     6     5    1
    24     5     1    1
    25     1     2    2
    26     1     3   am
    27     3    28    1
    28     3     4    1
    29    28    29    1
    30    29    30    1
    31    30    31    1
    32    31    32    1
    33    32    33    1
    34    33    34    1
    35    34    35    1
    36    35    36    1
    37    36    38    1
    38    36    37    1
    39    38    39   ar
    40    38    47   ar
    41    39    40   ar
    42    39    51    1
    43    40    41   ar
    44    40    48    1
    45    41    42   ar
    46    42    43   ar
    47    42    47   ar
    48    43    44   ar
    49    44    45   ar
    50    45    46   ar
    51    46    47   ar
    52    48    49    1
    53    49    50    1
    54    50    51    1
    55    26    27    1
#	Name:			CHEMBL3221289
#	Creating user name:	trannguyen
#	Creation time:		Tue Feb  8 17:54:08 2022


#	Modifying user name:	trannguyen
#	Modification time:	Tue Feb  8 17:54:08 2022

@<TRIPOS>MOLECULE
CHEMBL3221289
 53 57 0 0 0
SMALL
GASTEIGER

@<TRIPOS>ATOM
      1 C           2.2681   60.8224   69.6966 C.2     1  UNL1        0.2225
      2 O           1.4699   61.0096   70.6101 O.2     1  UNL1       -0.2751
      3 N           2.5269   61.7862   68.7561 N.am    1  UNL1       -0.3043
      4 H           2.0986   62.6906   68.9321 H       1  UNL1        0.1494
      5 C           2.9277   59.4658   69.5543 C.3     1  UNL1        0.0850
      6 C           2.7042   58.5993   70.7928 C.3     1  UNL1        0.0096
      7 C           2.4102   59.3561   72.0988 C.3     1  UNL1        0.0023
      8 C           3.4657   59.1623   73.1908 C.3     1  UNL1        0.0213
      9 C           3.2937   60.1655   74.3352 C.3     1  UNL1        0.0897
     10 C           1.7405   59.8766   76.2966 C.2     1  UNL1        0.2471
     11 O           2.6125   59.7816   77.1658 O.2     1  UNL1       -0.2701
     12 N           1.9794   60.0276   74.9466 N.am    1  UNL1       -0.3008
     13 H           1.1881   60.2283   74.3561 H       1  UNL1        0.1497
     14 C          -0.5030   58.6964   76.7236 C.ar    1  UNL1        0.0527
     15 C          -1.7477   58.8560   77.3682 C.ar    1  UNL1        0.0148
     16 C          -2.2662   60.0828   77.8009 C.ar    1  UNL1        0.0013
     17 C          -1.5186   61.2307   77.6396 C.ar    1  UNL1        0.0002
     18 C          -0.2492   61.1309   77.0827 C.ar    1  UNL1        0.0058
     19 C           0.2886   59.8786   76.6739 C.ar    1  UNL1        0.0667
     20 N          -0.0248   57.4245   76.2488 N.pl3   1  UNL1       -0.3127
     21 H           0.4541   57.5217   75.3515 H       1  UNL1        0.1522
     22 C          -1.7893   52.6429   76.0915 C.3     1  UNL1        0.0307
     23 C          -0.8131   53.7267   76.4535 C.ar    1  UNL1       -0.0246
     24 C           0.3411   53.3172   77.1240 C.ar    1  UNL1       -0.0045
     25 C           1.0904   54.2535   77.7937 C.ar    1  UNL1        0.0009
     26 C           0.7412   55.5935   77.6929 C.ar    1  UNL1        0.0143
     27 C          -0.1423   56.0832   76.7268 C.ar    1  UNL1        0.0440
     28 C          -1.0241   55.1159   76.1747 C.ar    1  UNL1       -0.0124
     29 C          -2.2831   55.5018   75.4377 C.3     1  UNL1        0.0320
     30 C           3.5097   61.7732   67.6827 C.3     1  UNL1        0.0894
     31 C           3.7748   63.1905   67.1741 C.3     1  UNL1        0.0212
     32 C           3.7743   63.2597   65.6465 C.3     1  UNL1        0.0017
     33 C           4.1901   64.6291   65.0921 C.3     1  UNL1        0.0001
     34 C           3.1363   65.3759   64.2629 C.3     1  UNL1        0.0001
     35 C           1.9517   65.8972   65.0840 C.3     1  UNL1        0.0017
     36 C           2.4184   66.6719   66.3227 C.3     1  UNL1        0.0212
     37 C           1.4299   67.7859   66.7129 C.3     1  UNL1        0.0870
     38 N           1.9558   69.0491   66.1770 N.pl3   1  UNL1       -0.3328
     39 H           1.4070   69.8438   66.4367 H       1  UNL1        0.1468
     40 C           3.2763   69.3600   65.8456 C.ar    1  UNL1        0.0431
     41 C           3.7010   69.1199   64.5070 C.ar    1  UNL1        0.0045
     42 C           5.0450   69.3286   64.1970 C.ar    1  UNL1        0.0561
     43 N           5.9107   69.8513   65.0795 N.ar    1  UNL1       -0.2499
     44 C           5.5217   70.1158   66.3103 C.ar    1  UNL1        0.0820
     45 C           6.5066   70.6291   67.1370 C.ar    1  UNL1        0.0191
     46 C           6.2578   70.9127   68.4689 C.ar    1  UNL1        0.0015
     47 C           5.0138   70.6179   68.9974 C.ar    1  UNL1        0.0001
     48 C           4.0327   70.0517   68.1786 C.ar    1  UNL1        0.0027
     49 C           4.2274   69.8595   66.7880 C.ar    1  UNL1        0.0305
     50 C           5.6474   69.0345   62.8516 C.3     1  UNL1        0.0455
     51 C           4.7576   68.2215   61.9240 C.3     1  UNL1        0.0066
     52 C           3.3256   68.7215   62.0033 C.3     1  UNL1        0.0052
     53 C           2.7784   68.5932   63.4294 C.3     1  UNL1        0.0288
@<TRIPOS>BOND
     1    22    23    1
     2    23    24   ar
     3    23    28   ar
     4    24    25   ar
     5    25    26   ar
     6    26    27   ar
     7    27    20    1
     8    27    28   ar
     9    20    14    1
    10    20    21    1
    11    14    15   ar
    12    14    19   ar
    13    15    16   ar
    14    16    17   ar
    15    17    18   ar
    16    18    19   ar
    17    19    10    1
    18    10    11    2
    19    10    12   am
    20    12     9    1
    21    12    13    1
    22     9     8    1
    23     8     7    1
    24     7     6    1
    25     6     5    1
    26     5     1    1
    27     1     2    2
    28     1     3   am
    29     3    30    1
    30     3     4    1
    31    30    31    1
    32    31    32    1
    33    32    33    1
    34    33    34    1
    35    34    35    1
    36    35    36    1
    37    36    37    1
    38    37    38    1
    39    38    40    1
    40    38    39    1
    41    40    41   ar
    42    40    49   ar
    43    41    42   ar
    44    41    53    1
    45    42    43   ar
    46    42    50    1
    47    43    44   ar
    48    44    45   ar
    49    44    49   ar
    50    45    46   ar
    51    46    47   ar
    52    47    48   ar
    53    48    49   ar
    54    50    51    1
    55    51    52    1
    56    52    53    1
    57    28    29    1
#	Name:			CHEMBL3221290
#	Creating user name:	trannguyen
#	Creation time:		Tue Feb  8 17:54:08 2022


#	Modifying user name:	trannguyen
#	Modification time:	Tue Feb  8 17:54:08 2022

@<TRIPOS>MOLECULE
CHEMBL3221290
 45 49 0 0 0
SMALL
GASTEIGER

@<TRIPOS>ATOM
      1 C           1.3512   58.6088   75.9587 C.2     1  UNL1        0.2425
      2 O           1.8125   57.4726   75.8828 O.2     1  UNL1       -0.2733
      3 N           0.0285   58.8652   76.2774 N.am    1  UNL1       -0.3029
      4 H          -0.2862   59.8257   76.1921 H       1  UNL1        0.1495
      5 C           2.1526   59.8350   75.5155 C.3     1  UNL1        0.1759
      6 C           2.7290   60.5705   77.8330 C.2     1  UNL1        0.2474
      7 O           3.2906   59.5027   78.1216 O.2     1  UNL1       -0.2701
      8 N           2.2199   60.8325   76.5818 N.am    1  UNL1       -0.2931
      9 H           1.8729   61.7554   76.3438 H       1  UNL1        0.1502
     10 C           1.3918   62.0789   79.3845 C.ar    1  UNL1        0.0527
     11 C           1.4169   63.0784   80.3716 C.ar    1  UNL1        0.0148
     12 C           2.5974   63.7109   80.7596 C.ar    1  UNL1        0.0013
     13 C           3.8000   63.3310   80.1873 C.ar    1  UNL1        0.0002
     14 C           3.8199   62.3181   79.2311 C.ar    1  UNL1        0.0058
     15 C           2.6294   61.6584   78.8386 C.ar    1  UNL1        0.0667
     16 N           0.1465   61.4557   79.0687 N.pl3   1  UNL1       -0.3127
     17 H           0.2520   60.7334   78.3471 H       1  UNL1        0.1522
     18 C          -4.8693   61.2939   79.2461 C.3     1  UNL1        0.0307
     19 C          -3.5723   62.0337   79.0473 C.ar    1  UNL1       -0.0246
     20 C          -3.6213   63.3683   78.6214 C.ar    1  UNL1       -0.0045
     21 C          -2.4507   64.0589   78.3405 C.ar    1  UNL1        0.0009
     22 C          -1.2223   63.4106   78.4518 C.ar    1  UNL1        0.0143
     23 C          -1.1232   62.0968   78.9456 C.ar    1  UNL1        0.0440
     24 C          -2.3154   61.4095   79.2706 C.ar    1  UNL1       -0.0124
     25 C          -2.2788   60.0504   79.9233 C.3     1  UNL1        0.0320
     26 C          -0.9650   57.8121   76.4269 C.3     1  UNL1        0.0912
     27 C          -1.8527   57.6471   75.1747 C.3     1  UNL1        0.0424
     28 C          -3.0952   58.5161   75.3230 C.3     1  UNL1        0.0888
     29 N          -3.5705   58.7168   76.6907 N.pl3   1  UNL1       -0.3328
     30 H          -3.7373   59.7087   76.8402 H       1  UNL1        0.1468
     31 C          -4.7407   57.9802   77.1046 C.ar    1  UNL1        0.0431
     32 C          -4.7034   56.7818   77.8811 C.ar    1  UNL1        0.0045
     33 C          -5.9179   56.1538   78.1898 C.ar    1  UNL1        0.0561
     34 N          -7.1202   56.7058   77.9404 N.ar    1  UNL1       -0.2499
     35 C          -7.1741   57.8881   77.3367 C.ar    1  UNL1        0.0829
     36 C          -8.4405   58.4319   77.2105 C.ar    1  UNL1        0.0305
     37 C          -8.6419   59.6486   76.5773 C.ar    1  UNL1        0.0592
     38 CL        -10.2267   60.3095   76.4768 Cl      1  UNL1       -0.0822
     39 C          -7.5655   60.3305   76.0349 C.ar    1  UNL1        0.0115
     40 C          -6.2763   59.8029   76.1747 C.ar    1  UNL1        0.0036
     41 C          -6.0347   58.5749   76.8552 C.ar    1  UNL1        0.0305
     42 C          -5.9943   54.8193   78.8914 C.3     1  UNL1        0.0455
     43 C          -4.6866   54.0434   78.8897 C.3     1  UNL1        0.0066
     44 C          -3.5874   54.9670   79.3639 C.3     1  UNL1        0.0052
     45 C          -3.4396   56.1196   78.3798 C.3     1  UNL1        0.0288
@<TRIPOS>BOND
     1    18    19    1
     2    19    20   ar
     3    19    24   ar
     4    20    21   ar
     5    21    22   ar
     6    22    23   ar
     7    23    16    1
     8    23    24   ar
     9    16    10    1
    10    16    17    1
    11    10    11   ar
    12    10    15   ar
    13    11    12   ar
    14    12    13   ar
    15    13    14   ar
    16    14    15   ar
    17    15     6    1
    18     6     7    2
    19     6     8   am
    20     8     5    1
    21     8     9    1
    22     5     1    1
    23     1     2    2
    24     1     3   am
    25     3    26    1
    26     3     4    1
    27    26    27    1
    28    27    28    1
    29    28    29    1
    30    29    31    1
    31    29    30    1
    32    31    32   ar
    33    31    41   ar
    34    32    33   ar
    35    32    45    1
    36    33    34   ar
    37    33    42    1
    38    34    35   ar
    39    35    36   ar
    40    35    41   ar
    41    36    37   ar
    42    37    38    1
    43    37    39   ar
    44    39    40   ar
    45    40    41   ar
    46    42    43    1
    47    43    44    1
    48    44    45    1
    49    24    25    1
#	Name:			CHEMBL3221291
#	Creating user name:	trannguyen
#	Creation time:		Tue Feb  8 17:54:08 2022


#	Modifying user name:	trannguyen
#	Modification time:	Tue Feb  8 17:54:08 2022

@<TRIPOS>MOLECULE
CHEMBL3221291
 46 50 0 0 0
SMALL
GASTEIGER

@<TRIPOS>ATOM
      1 C          -2.6807   65.0915   77.2337 C.2     1  UNL1        0.2242
      2 O          -2.4926   64.9298   76.0328 O.2     1  UNL1       -0.2750
      3 N          -2.0243   64.3798   78.2108 N.am    1  UNL1       -0.3042
      4 H          -2.2918   64.5080   79.1806 H       1  UNL1        0.1494
      5 C          -3.6981   66.0697   77.7648 C.3     1  UNL1        0.1062
      6 C          -4.4555   65.4402   78.9209 C.3     1  UNL1        0.0993
      7 C          -5.4119   63.1241   78.7127 C.2     1  UNL1        0.2471
      8 O          -4.4980   62.6169   79.3215 O.2     1  UNL1       -0.2701
      9 N          -5.4708   64.5081   78.4612 N.am    1  UNL1       -0.3003
     10 H          -6.2516   64.9275   78.0007 H       1  UNL1        0.1498
     11 C          -6.3578   61.0680   77.5018 C.ar    1  UNL1        0.0527
     12 C          -7.4816   60.3623   77.0286 C.ar    1  UNL1        0.0148
     13 C          -8.7819   60.8225   77.2181 C.ar    1  UNL1        0.0013
     14 C          -8.9911   62.0081   77.8965 C.ar    1  UNL1        0.0002
     15 C          -7.9009   62.7372   78.3714 C.ar    1  UNL1        0.0058
     16 C          -6.5675   62.2973   78.1825 C.ar    1  UNL1        0.0667
     17 N          -5.0736   60.5131   77.2660 N.pl3   1  UNL1       -0.3127
     18 H          -4.3998   61.1745   76.8738 H       1  UNL1        0.1522
     19 C          -2.9929   56.5126   79.4386 C.3     1  UNL1        0.0307
     20 C          -3.6857   57.1735   78.2760 C.ar    1  UNL1       -0.0246
     21 C          -3.7880   56.4753   77.0662 C.ar    1  UNL1       -0.0045
     22 C          -4.3279   57.0925   75.9456 C.ar    1  UNL1        0.0009
     23 C          -4.7206   58.4301   76.0128 C.ar    1  UNL1        0.0143
     24 C          -4.6584   59.1588   77.2137 C.ar    1  UNL1        0.0440
     25 C          -4.2120   58.4887   78.3760 C.ar    1  UNL1       -0.0124
     26 C          -4.3578   59.1119   79.7422 C.3     1  UNL1        0.0320
     27 C          -1.0122   63.3984   77.8870 C.3     1  UNL1        0.0911
     28 C          -1.4266   61.9835   78.2852 C.3     1  UNL1        0.0424
     29 C          -1.4350   61.0804   77.0536 C.3     1  UNL1        0.0888
     30 N          -0.0890   60.6834   76.6687 N.pl3   1  UNL1       -0.3328
     31 H           0.4233   61.4592   76.2569 H       1  UNL1        0.1468
     32 C           0.7679   59.7817   77.3260 C.ar    1  UNL1        0.0431
     33 C           1.8012   60.1541   78.2268 C.ar    1  UNL1        0.0045
     34 C           2.5655   59.1246   78.7912 C.ar    1  UNL1        0.0561
     35 N           2.2883   57.8130   78.6525 N.ar    1  UNL1       -0.2499
     36 C           1.2892   57.4450   77.8612 C.ar    1  UNL1        0.0829
     37 C           1.0618   56.0805   77.7802 C.ar    1  UNL1        0.0305
     38 C           0.0888   55.5595   76.9413 C.ar    1  UNL1        0.0592
     39 CL         -0.1721   53.8597   76.8852 Cl      1  UNL1       -0.0822
     40 C          -0.6655   56.4116   76.1525 C.ar    1  UNL1        0.0115
     41 C          -0.4665   57.7967   76.2517 C.ar    1  UNL1        0.0036
     42 C           0.5090   58.3638   77.1270 C.ar    1  UNL1        0.0305
     43 C           3.7987   59.3970   79.6113 C.3     1  UNL1        0.0455
     44 C           4.4157   60.7536   79.3129 C.3     1  UNL1        0.0066
     45 C           3.3510   61.8036   79.5170 C.3     1  UNL1        0.0052
     46 C           2.1973   61.5783   78.5494 C.3     1  UNL1        0.0288
@<TRIPOS>BOND
     1    19    20    1
     2    20    21   ar
     3    20    25   ar
     4    21    22   ar
     5    22    23   ar
     6    23    24   ar
     7    24    17    1
     8    24    25   ar
     9    17    11    1
    10    17    18    1
    11    11    12   ar
    12    11    16   ar
    13    12    13   ar
    14    13    14   ar
    15    14    15   ar
    16    15    16   ar
    17    16     7    1
    18     7     8    2
    19     7     9   am
    20     9     6    1
    21     9    10    1
    22     6     5    1
    23     5     1    1
    24     1     2    2
    25     1     3   am
    26     3    27    1
    27     3     4    1
    28    27    28    1
    29    28    29    1
    30    29    30    1
    31    30    32    1
    32    30    31    1
    33    32    33   ar
    34    32    42   ar
    35    33    34   ar
    36    33    46    1
    37    34    35   ar
    38    34    43    1
    39    35    36   ar
    40    36    37   ar
    41    36    42   ar
    42    37    38   ar
    43    38    39    1
    44    38    40   ar
    45    40    41   ar
    46    41    42   ar
    47    43    44    1
    48    44    45    1
    49    45    46    1
    50    25    26    1
#	Name:			CHEMBL3221292
#	Creating user name:	trannguyen
#	Creation time:		Tue Feb  8 17:54:08 2022


#	Modifying user name:	trannguyen
#	Modification time:	Tue Feb  8 17:54:08 2022

@<TRIPOS>MOLECULE
CHEMBL3221292
 49 53 0 0 0
SMALL
GASTEIGER

@<TRIPOS>ATOM
      1 C           2.3981   60.2743   69.4371 C.3     1  UNL1        0.0850
      2 C           2.7402   60.3001   70.9157 C.2     1  UNL1        0.2225
      3 O           2.9333   61.3469   71.5231 O.2     1  UNL1       -0.2751
      4 N           2.8347   59.0541   71.5023 N.am    1  UNL1       -0.3043
      5 H           2.7829   58.2326   70.9143 H       1  UNL1        0.1494
      6 C           3.1783   58.8730   72.9045 C.3     1  UNL1        0.0911
      7 C           2.0362   59.2564   73.8474 C.3     1  UNL1        0.0424
      8 C           2.5326   60.1346   75.0008 C.3     1  UNL1        0.0888
      9 N           2.1272   59.5846   76.2791 N.pl3   1  UNL1       -0.3328
     10 H           2.6854   58.7799   76.5431 H       1  UNL1        0.1468
     11 C           0.8143   59.5021   76.7822 C.ar    1  UNL1        0.0431
     12 C           0.3620   58.1867   77.0913 C.ar    1  UNL1        0.0045
     13 C          -0.9099   58.0197   77.6410 C.ar    1  UNL1        0.0561
     14 N          -1.6990   59.0550   77.9855 N.ar    1  UNL1       -0.2499
     15 C          -1.2848   60.2982   77.7400 C.ar    1  UNL1        0.0829
     16 C          -2.1652   61.3001   78.1255 C.ar    1  UNL1        0.0305
     17 C          -1.8899   62.6395   77.8917 C.ar    1  UNL1        0.0592
     18 CL         -3.0044   63.8538   78.3806 Cl      1  UNL1       -0.0822
     19 C          -0.7252   62.9927   77.2420 C.ar    1  UNL1        0.0115
     20 C           0.1714   61.9926   76.8541 C.ar    1  UNL1        0.0036
     21 C          -0.0493   60.6090   77.1139 C.ar    1  UNL1        0.0305
     22 C          -1.4918   56.6612   77.9349 C.3     1  UNL1        0.0455
     23 C          -0.7834   55.5253   77.2088 C.3     1  UNL1        0.0066
     24 C           0.7178   55.6646   77.3897 C.3     1  UNL1        0.0052
     25 C           1.2081   56.9701   76.7687 C.3     1  UNL1        0.0288
     26 C           2.3567   61.6663   68.7950 C.3     1  UNL1        0.0096
     27 C           3.5749   61.8609   67.8722 C.3     1  UNL1        0.0023
     28 C           3.6532   63.2493   67.2193 C.3     1  UNL1        0.0213
     29 C           3.6309   63.1998   65.6773 C.3     1  UNL1        0.0897
     30 C           3.1909   65.6175   64.9979 C.2     1  UNL1        0.2471
     31 O           2.1598   65.7229   65.6103 O.2     1  UNL1       -0.2701
     32 N           3.9668   64.4459   64.9971 N.am    1  UNL1       -0.3008
     33 H           4.9179   64.5176   64.6818 H       1  UNL1        0.1497
     34 C           3.6054   68.1497   64.4412 C.ar    1  UNL1        0.0527
     35 C           4.0631   69.0588   63.4592 C.ar    1  UNL1        0.0148
     36 C           4.6474   68.6418   62.2586 C.ar    1  UNL1        0.0013
     37 C           4.7829   67.2928   61.9838 C.ar    1  UNL1        0.0002
     38 C           4.3129   66.3642   62.9058 C.ar    1  UNL1        0.0058
     39 C           3.7294   66.7551   64.1381 C.ar    1  UNL1        0.0667
     40 N           3.0710   68.6936   65.6442 N.pl3   1  UNL1       -0.3127
     41 H           2.0606   68.5944   65.7198 H       1  UNL1        0.1522
     42 C           7.1411   70.5602   67.9004 C.3     1  UNL1        0.0307
     43 C           5.6403   70.3980   67.8419 C.ar    1  UNL1       -0.0246
     44 C           4.8639   70.7562   68.9419 C.ar    1  UNL1       -0.0045
     45 C           3.4930   70.5155   68.9216 C.ar    1  UNL1        0.0009
     46 C           2.9031   69.8209   67.8502 C.ar    1  UNL1        0.0143
     47 C           3.6437   69.4396   66.7211 C.ar    1  UNL1        0.0440
     48 C           4.9947   69.8799   66.6812 C.ar    1  UNL1       -0.0124
     49 C           5.7403   70.0230   65.3795 C.3     1  UNL1        0.0320
@<TRIPOS>BOND
     1    42    43    1
     2    43    44   ar
     3    43    48   ar
     4    44    45   ar
     5    45    46   ar
     6    46    47   ar
     7    47    40    1
     8    47    48   ar
     9    40    34    1
    10    40    41    1
    11    34    35   ar
    12    34    39   ar
    13    35    36   ar
    14    36    37   ar
    15    37    38   ar
    16    38    39   ar
    17    39    30    1
    18    30    31    2
    19    30    32   am
    20    32    29    1
    21    32    33    1
    22    29    28    1
    23    28    27    1
    24    27    26    1
    25    26     1    1
    26     1     2    1
    27     2     3    2
    28     2     4   am
    29     4     6    1
    30     4     5    1
    31     6     7    1
    32     7     8    1
    33     8     9    1
    34     9    11    1
    35     9    10    1
    36    11    12   ar
    37    11    21   ar
    38    12    13   ar
    39    12    25    1
    40    13    14   ar
    41    13    22    1
    42    14    15   ar
    43    15    16   ar
    44    15    21   ar
    45    16    17   ar
    46    17    18    1
    47    17    19   ar
    48    19    20   ar
    49    20    21   ar
    50    22    23    1
    51    23    24    1
    52    24    25    1
    53    48    49    1
#	Name:			CHEMBL3221293
#	Creating user name:	trannguyen
#	Creation time:		Tue Feb  8 17:54:08 2022


#	Modifying user name:	trannguyen
#	Modification time:	Tue Feb  8 17:54:08 2022

@<TRIPOS>MOLECULE
CHEMBL3221293
 46 50 0 0 0
SMALL
GASTEIGER

@<TRIPOS>ATOM
      1 C          -0.8504   63.6080   75.8296 C.2     1  UNL1        0.2425
      2 O          -1.1574   63.0071   74.7902 O.2     1  UNL1       -0.2733
      3 N          -0.0569   63.0290   76.7972 N.am    1  UNL1       -0.3030
      4 H           0.3588   63.6278   77.5098 H       1  UNL1        0.1495
      5 C          -1.3922   65.0117   76.1783 C.3     1  UNL1        0.1759
      6 C          -3.3058   64.7302   77.7482 C.2     1  UNL1        0.2474
      7 O          -2.5534   64.3215   78.6413 O.2     1  UNL1       -0.2701
      8 N          -2.8194   65.0746   76.5098 N.am    1  UNL1       -0.2931
      9 H          -3.4744   65.3300   75.7784 H       1  UNL1        0.1502
     10 C          -5.8272   64.0050   78.0238 C.ar    1  UNL1        0.0527
     11 C          -7.1361   64.4733   78.3214 C.ar    1  UNL1        0.0148
     12 C          -7.4002   65.7943   78.6731 C.ar    1  UNL1        0.0013
     13 C          -6.3522   66.6936   78.7475 C.ar    1  UNL1        0.0002
     14 C          -5.0565   66.2643   78.4571 C.ar    1  UNL1        0.0058
     15 C          -4.7624   64.9341   78.0752 C.ar    1  UNL1        0.0667
     16 N          -5.7646   62.6375   77.6962 N.pl3   1  UNL1       -0.3127
     17 H          -6.3092   62.3972   76.8710 H       1  UNL1        0.1522
     18 C          -6.4894   57.7590   78.5664 C.3     1  UNL1        0.0307
     19 C          -5.8527   59.0975   78.8239 C.ar    1  UNL1       -0.0246
     20 C          -4.8384   59.1345   79.7962 C.ar    1  UNL1       -0.0045
     21 C          -4.2084   60.3247   80.1382 C.ar    1  UNL1        0.0009
     22 C          -4.5550   61.4979   79.4832 C.ar    1  UNL1        0.0143
     23 C          -5.4934   61.4802   78.4464 C.ar    1  UNL1        0.0440
     24 C          -6.1621   60.2742   78.1061 C.ar    1  UNL1       -0.0124
     25 C          -7.1768   60.2778   76.9812 C.3     1  UNL1        0.0320
     26 C           0.4556   61.6571   76.6926 C.3     1  UNL1        0.0895
     27 C           1.1873   61.2091   77.9694 C.3     1  UNL1        0.0230
     28 C           1.9135   59.8491   77.8571 C.3     1  UNL1        0.0229
     29 C           1.7363   58.9493   79.0946 C.3     1  UNL1        0.0871
     30 N           0.3877   58.3819   79.1390 N.pl3   1  UNL1       -0.3328
     31 H           0.1055   58.1128   80.0793 H       1  UNL1        0.1468
     32 C          -0.1409   57.4515   78.2123 C.ar    1  UNL1        0.0431
     33 C           0.2088   56.0821   78.1204 C.ar    1  UNL1        0.0045
     34 C          -0.4066   55.3071   77.1190 C.ar    1  UNL1        0.0561
     35 N          -1.3488   55.7839   76.2750 N.ar    1  UNL1       -0.2499
     36 C          -1.7619   57.0418   76.4193 C.ar    1  UNL1        0.0829
     37 C          -2.7974   57.4657   75.5984 C.ar    1  UNL1        0.0305
     38 C          -3.3510   58.7337   75.7341 C.ar    1  UNL1        0.0592
     39 CL         -4.6699   59.2081   74.7359 Cl      1  UNL1       -0.0822
     40 C          -2.8527   59.6123   76.6827 C.ar    1  UNL1        0.0115
     41 C          -1.7798   59.2150   77.4823 C.ar    1  UNL1        0.0036
     42 C          -1.2146   57.9189   77.3814 C.ar    1  UNL1        0.0305
     43 C          -0.1566   53.8249   76.9739 C.3     1  UNL1        0.0455
     44 C           1.1421   53.3625   77.6129 C.3     1  UNL1        0.0066
     45 C           1.2001   53.8793   79.0366 C.3     1  UNL1        0.0052
     46 C           1.1805   55.4085   79.0590 C.3     1  UNL1        0.0288
@<TRIPOS>BOND
     1    18    19    1
     2    19    20   ar
     3    19    24   ar
     4    20    21   ar
     5    21    22   ar
     6    22    23   ar
     7    23    16    1
     8    23    24   ar
     9    16    10    1
    10    16    17    1
    11    10    11   ar
    12    10    15   ar
    13    11    12   ar
    14    12    13   ar
    15    13    14   ar
    16    14    15   ar
    17    15     6    1
    18     6     7    2
    19     6     8   am
    20     8     5    1
    21     8     9    1
    22     5     1    1
    23     1     2    2
    24     1     3   am
    25     3    26    1
    26     3     4    1
    27    26    27    1
    28    27    28    1
    29    28    29    1
    30    29    30    1
    31    30    32    1
    32    30    31    1
    33    32    33   ar
    34    32    42   ar
    35    33    34   ar
    36    33    46    1
    37    34    35   ar
    38    34    43    1
    39    35    36   ar
    40    36    37   ar
    41    36    42   ar
    42    37    38   ar
    43    38    39    1
    44    38    40   ar
    45    40    41   ar
    46    41    42   ar
    47    43    44    1
    48    44    45    1
    49    45    46    1
    50    24    25    1
#	Name:			CHEMBL3221565
#	Creating user name:	trannguyen
#	Creation time:		Tue Feb  8 17:54:08 2022


#	Modifying user name:	trannguyen
#	Modification time:	Tue Feb  8 17:54:08 2022

@<TRIPOS>MOLECULE
CHEMBL3221565
 48 52 0 0 0
SMALL
GASTEIGER

@<TRIPOS>ATOM
      1 C          -5.2803   59.2730   75.4570 C.2     1  UNL1        0.2425
      2 O          -5.8802   60.2084   74.9404 O.2     1  UNL1       -0.2733
      3 N          -5.8856   58.3648   76.3069 N.am    1  UNL1       -0.3030
      4 H          -5.3199   57.6106   76.6644 H       1  UNL1        0.1495
      5 C          -3.7922   58.9432   75.2075 C.3     1  UNL1        0.1759
      6 C          -2.1018   57.1701   75.3054 C.2     1  UNL1        0.2474
      7 O          -1.3661   57.8114   74.5852 O.2     1  UNL1       -0.2701
      8 N          -3.3361   57.6534   75.7107 N.am    1  UNL1       -0.2931
      9 H          -4.0245   56.9872   76.0346 H       1  UNL1        0.1502
     10 C          -0.4490   55.3946   76.2800 C.ar    1  UNL1        0.0527
     11 C          -0.3472   54.0728   76.7549 C.ar    1  UNL1        0.0148
     12 C          -1.3402   53.1181   76.5240 C.ar    1  UNL1        0.0013
     13 C          -2.5242   53.4894   75.9113 C.ar    1  UNL1        0.0002
     14 C          -2.7195   54.8225   75.5618 C.ar    1  UNL1        0.0058
     15 C          -1.7069   55.7890   75.7516 C.ar    1  UNL1        0.0667
     16 N           0.6417   56.2994   76.4330 N.pl3   1  UNL1       -0.3127
     17 H           1.4904   55.8720   76.0551 H       1  UNL1        0.1522
     18 C           2.4881   60.6499   78.1145 C.3     1  UNL1        0.0307
     19 C           1.9741   59.2526   78.3398 C.ar    1  UNL1       -0.0246
     20 C           1.9882   58.7466   79.6461 C.ar    1  UNL1       -0.0045
     21 C           1.5285   57.4631   79.9069 C.ar    1  UNL1        0.0009
     22 C           1.0828   56.6543   78.8590 C.ar    1  UNL1        0.0143
     23 C           1.0245   57.1269   77.5373 C.ar    1  UNL1        0.0440
     24 C           1.4729   58.4499   77.2804 C.ar    1  UNL1       -0.0124
     25 C           1.4586   58.9763   75.8661 C.3     1  UNL1        0.0320
     26 C          -7.2578   58.4800   76.7588 C.3     1  UNL1        0.0894
     27 C          -7.9846   57.1303   76.8290 C.3     1  UNL1        0.0212
     28 C          -9.0029   56.9733   77.9720 C.3     1  UNL1        0.0018
     29 C          -9.1083   58.1590   78.9487 C.3     1  UNL1        0.0018
     30 C          -8.6024   57.8717   80.3734 C.3     1  UNL1        0.0212
     31 C          -7.0768   57.7913   80.3986 C.3     1  UNL1        0.0870
     32 N          -6.4254   59.0520   80.7304 N.pl3   1  UNL1       -0.3328
     33 H          -6.5919   59.4302   81.6546 H       1  UNL1        0.1468
     34 C          -5.7881   59.9085   79.8112 C.ar    1  UNL1        0.0431
     35 C          -4.4393   59.7444   79.4004 C.ar    1  UNL1        0.0045
     36 C          -3.8716   60.7165   78.5659 C.ar    1  UNL1        0.0561
     37 N          -4.5484   61.7837   78.0947 N.ar    1  UNL1       -0.2499
     38 C          -5.8246   61.9410   78.4347 C.ar    1  UNL1        0.0829
     39 C          -6.4667   63.0382   77.8765 C.ar    1  UNL1        0.0305
     40 C          -7.7944   63.3204   78.1630 C.ar    1  UNL1        0.0592
     41 CL         -8.5817   64.6442   77.3933 Cl      1  UNL1       -0.0822
     42 C          -8.4979   62.5018   79.0306 C.ar    1  UNL1        0.0115
     43 C          -7.8764   61.3610   79.5606 C.ar    1  UNL1        0.0036
     44 C          -6.5145   61.0471   79.2906 C.ar    1  UNL1        0.0305
     45 C          -2.4633   60.6003   78.0399 C.3     1  UNL1        0.0455
     46 C          -1.5816   59.6752   78.8638 C.3     1  UNL1        0.0066
     47 C          -2.2912   58.3498   79.0371 C.3     1  UNL1        0.0052
     48 C          -3.5966   58.5535   79.7903 C.3     1  UNL1        0.0288
@<TRIPOS>BOND
     1    18    19    1
     2    19    20   ar
     3    19    24   ar
     4    20    21   ar
     5    21    22   ar
     6    22    23   ar
     7    23    16    1
     8    23    24   ar
     9    16    10    1
    10    16    17    1
    11    10    11   ar
    12    10    15   ar
    13    11    12   ar
    14    12    13   ar
    15    13    14   ar
    16    14    15   ar
    17    15     6    1
    18     6     7    2
    19     6     8   am
    20     8     5    1
    21     8     9    1
    22     5     1    1
    23     1     2    2
    24     1     3   am
    25     3    26    1
    26     3     4    1
    27    26    27    1
    28    27    28    1
    29    28    29    1
    30    29    30    1
    31    30    31    1
    32    31    32    1
    33    32    34    1
    34    32    33    1
    35    34    35   ar
    36    34    44   ar
    37    35    36   ar
    38    35    48    1
    39    36    37   ar
    40    36    45    1
    41    37    38   ar
    42    38    39   ar
    43    38    44   ar
    44    39    40   ar
    45    40    41    1
    46    40    42   ar
    47    42    43   ar
    48    43    44   ar
    49    45    46    1
    50    46    47    1
    51    47    48    1
    52    24    25    1
#	Name:			CHEMBL3221566
#	Creating user name:	trannguyen
#	Creation time:		Tue Feb  8 17:54:08 2022


#	Modifying user name:	trannguyen
#	Modification time:	Tue Feb  8 17:54:08 2022

@<TRIPOS>MOLECULE
CHEMBL3221566
 49 53 0 0 0
SMALL
GASTEIGER

@<TRIPOS>ATOM
      1 C           1.3795   59.4439   75.2821 C.2     1  UNL1        0.2425
      2 O           1.4979   59.2734   74.0683 O.2     1  UNL1       -0.2733
      3 N           1.6317   60.6622   75.8216 N.am    1  UNL1       -0.3030
      4 H           1.9280   61.3330   75.1185 H       1  UNL1        0.1495
      5 C           0.8958   58.3405   76.1944 C.3     1  UNL1        0.1759
      6 C          -1.4127   57.6265   75.5547 C.2     1  UNL1        0.2474
      7 O          -1.0473   56.7068   74.8258 O.2     1  UNL1       -0.2701
      8 N          -0.5439   58.4640   76.2344 N.am    1  UNL1       -0.2931
      9 H          -0.9146   59.2297   76.7771 H       1  UNL1        0.1502
     10 C          -3.5632   56.9191   76.6886 C.ar    1  UNL1        0.0527
     11 C          -4.8831   57.2371   77.0606 C.ar    1  UNL1        0.0148
     12 C          -5.5536   58.3337   76.5188 C.ar    1  UNL1        0.0013
     13 C          -4.9079   59.1575   75.6065 C.ar    1  UNL1        0.0002
     14 C          -3.5759   58.9091   75.2665 C.ar    1  UNL1        0.0058
     15 C          -2.8795   57.8195   75.8302 C.ar    1  UNL1        0.0667
     16 N          -2.9074   55.8096   77.2939 N.pl3   1  UNL1       -0.3127
     17 H          -3.6042   55.1109   77.5934 H       1  UNL1        0.1522
     18 C           1.1962   53.6150   79.1087 C.3     1  UNL1        0.0307
     19 C           0.1737   54.7188   79.1215 C.ar    1  UNL1       -0.0246
     20 C           0.1904   55.6403   80.1764 C.ar    1  UNL1       -0.0045
     21 C          -0.7901   56.6204   80.2711 C.ar    1  UNL1        0.0009
     22 C          -1.8120   56.6741   79.3248 C.ar    1  UNL1        0.0143
     23 C          -1.8315   55.8033   78.2243 C.ar    1  UNL1        0.0440
     24 C          -0.8136   54.8269   78.1105 C.ar    1  UNL1       -0.0124
     25 C          -0.7503   53.9097   76.9134 C.3     1  UNL1        0.0320
     26 C           1.5380   61.0826   77.2058 C.3     1  UNL1        0.0894
     27 C           0.1696   61.6714   77.5374 C.3     1  UNL1        0.0212
     28 C          -0.0659   61.8762   79.0420 C.3     1  UNL1        0.0017
     29 C          -1.0865   60.8600   79.5622 C.3     1  UNL1        0.0001
     30 C          -2.1551   60.4939   78.5271 C.3     1  UNL1        0.0017
     31 C          -3.4532   59.9663   79.1724 C.3     1  UNL1        0.0212
     32 C          -3.6092   60.4910   80.6010 C.3     1  UNL1        0.0870
     33 N          -4.7621   61.3814   80.7505 N.pl3   1  UNL1       -0.3328
     34 H          -4.6035   61.9884   81.5514 H       1  UNL1        0.1468
     35 C          -5.1810   62.1876   79.6442 C.ar    1  UNL1        0.0431
     36 C          -4.4889   63.3457   79.1955 C.ar    1  UNL1        0.0045
     37 C          -5.0378   64.0660   78.1249 C.ar    1  UNL1        0.0561
     38 N          -6.1234   63.6617   77.4333 N.ar    1  UNL1       -0.2499
     39 C          -6.7039   62.5111   77.7590 C.ar    1  UNL1        0.0829
     40 C          -7.7571   62.1171   76.9515 C.ar    1  UNL1        0.0305
     41 C          -8.4354   60.9294   77.1858 C.ar    1  UNL1        0.0592
     42 CL         -9.7288   60.4720   76.1473 Cl      1  UNL1       -0.0822
     43 C          -8.0678   60.1126   78.2367 C.ar    1  UNL1        0.0115
     44 C          -7.0035   60.4971   79.0572 C.ar    1  UNL1        0.0036
     45 C          -6.2889   61.7122   78.8477 C.ar    1  UNL1        0.0305
     46 C          -4.4156   65.3335   77.5930 C.3     1  UNL1        0.0455
     47 C          -3.4188   65.9794   78.5422 C.3     1  UNL1        0.0066
     48 C          -2.4499   64.9205   79.0238 C.3     1  UNL1        0.0052
     49 C          -3.2042   63.8528   79.8092 C.3     1  UNL1        0.0288
@<TRIPOS>BOND
     1    18    19    1
     2    19    20   ar
     3    19    24   ar
     4    20    21   ar
     5    21    22   ar
     6    22    23   ar
     7    23    16    1
     8    23    24   ar
     9    16    10    1
    10    16    17    1
    11    10    11   ar
    12    10    15   ar
    13    11    12   ar
    14    12    13   ar
    15    13    14   ar
    16    14    15   ar
    17    15     6    1
    18     6     7    2
    19     6     8   am
    20     8     5    1
    21     8     9    1
    22     5     1    1
    23     1     2    2
    24     1     3   am
    25     3    26    1
    26     3     4    1
    27    26    27    1
    28    27    28    1
    29    28    29    1
    30    29    30    1
    31    30    31    1
    32    31    32    1
    33    32    33    1
    34    33    35    1
    35    33    34    1
    36    35    36   ar
    37    35    45   ar
    38    36    37   ar
    39    36    49    1
    40    37    38   ar
    41    37    46    1
    42    38    39   ar
    43    39    40   ar
    44    39    45   ar
    45    40    41   ar
    46    41    42    1
    47    41    43   ar
    48    43    44   ar
    49    44    45   ar
    50    46    47    1
    51    47    48    1
    52    48    49    1
    53    24    25    1
#	Name:			CHEMBL3221567
#	Creating user name:	trannguyen
#	Creation time:		Tue Feb  8 17:54:08 2022


#	Modifying user name:	trannguyen
#	Modification time:	Tue Feb  8 17:54:08 2022

@<TRIPOS>MOLECULE
CHEMBL3221567
 50 54 0 0 0
SMALL
GASTEIGER

@<TRIPOS>ATOM
      1 C           2.5825   60.5203   71.0001 C.2     1  UNL1        0.2425
      2 O           2.9588   61.5552   71.5275 O.2     1  UNL1       -0.2733
      3 N           2.1949   60.4420   69.6581 N.am    1  UNL1       -0.3030
      4 H           1.7946   59.5887   69.2891 H       1  UNL1        0.1495
      5 C           2.3937   59.2132   71.8092 C.3     1  UNL1        0.1759
      6 C           2.6007   59.5858   74.2976 C.2     1  UNL1        0.2474
      7 O           3.8222   59.6613   74.2570 O.2     1  UNL1       -0.2701
      8 N           1.8511   59.3910   73.1641 N.am    1  UNL1       -0.2931
      9 H           0.8689   59.6207   73.2515 H       1  UNL1        0.1502
     10 C           1.3555   58.6207   76.4737 C.ar    1  UNL1        0.0527
     11 C           0.8358   59.0124   77.7453 C.ar    1  UNL1        0.0148
     12 C           0.6779   60.3418   78.1366 C.ar    1  UNL1        0.0013
     13 C           1.1146   61.3469   77.2985 C.ar    1  UNL1        0.0002
     14 C           1.7182   61.0175   76.0806 C.ar    1  UNL1        0.0058
     15 C           1.8543   59.6740   75.6320 C.ar    1  UNL1        0.0667
     16 N           1.3754   57.2076   76.1155 N.pl3   1  UNL1       -0.3127
     17 H           2.3230   56.8733   76.2709 H       1  UNL1        0.1522
     18 C          -2.7625   54.3466   75.9675 C.3     1  UNL1        0.0307
     19 C          -1.4018   54.6867   76.5070 C.ar    1  UNL1       -0.0246
     20 C          -0.7911   53.7609   77.3625 C.ar    1  UNL1       -0.0045
     21 C           0.4038   54.0834   77.9911 C.ar    1  UNL1        0.0009
     22 C           1.0458   55.2917   77.7027 C.ar    1  UNL1        0.0143
     23 C           0.5749   56.1365   76.6817 C.ar    1  UNL1        0.0440
     24 C          -0.7522   55.9173   76.2102 C.ar    1  UNL1       -0.0124
     25 C          -1.5519   56.9968   75.5076 C.3     1  UNL1        0.0320
     26 C           2.2015   61.5976   68.7697 C.3     1  UNL1        0.0894
     27 C           3.5413   61.6979   68.0247 C.3     1  UNL1        0.0212
     28 C           3.7751   63.0719   67.3826 C.3     1  UNL1        0.0017
     29 C           3.7018   63.0873   65.8351 C.3     1  UNL1        0.0001
     30 C           3.9298   64.4621   65.1726 C.3     1  UNL1        0.0001
     31 C           2.6426   65.3388   65.0768 C.3     1  UNL1        0.0017
     32 C           2.6062   66.4230   66.1777 C.3     1  UNL1        0.0212
     33 C           1.4331   67.4529   66.2088 C.3     1  UNL1        0.0870
     34 N           1.8629   68.8593   66.1854 N.pl3   1  UNL1       -0.3328
     35 H           1.5598   69.3053   67.0440 H       1  UNL1        0.1468
     36 C           3.1801   69.2992   65.8390 C.ar    1  UNL1        0.0431
     37 C           3.6164   69.0725   64.4880 C.ar    1  UNL1        0.0045
     38 C           4.9533   69.3293   64.1556 C.ar    1  UNL1        0.0561
     39 N           5.8373   69.8539   65.0195 N.ar    1  UNL1       -0.2499
     40 C           5.4691   70.0759   66.2675 C.ar    1  UNL1        0.0829
     41 C           6.5016   70.5619   67.0491 C.ar    1  UNL1        0.0305
     42 C           6.3268   70.7872   68.3987 C.ar    1  UNL1        0.0592
     43 CL          7.6354   71.3617   69.3531 Cl      1  UNL1       -0.0822
     44 C           5.0992   70.5189   68.9704 C.ar    1  UNL1        0.0115
     45 C           4.0463   70.0323   68.1760 C.ar    1  UNL1        0.0036
     46 C           4.1713   69.8038   66.7784 C.ar    1  UNL1        0.0305
     47 C           5.5456   69.0715   62.7953 C.3     1  UNL1        0.0455
     48 C           4.6828   68.2176   61.8841 C.3     1  UNL1        0.0066
     49 C           3.2328   68.6545   61.9799 C.3     1  UNL1        0.0052
     50 C           2.6990   68.5258   63.4112 C.3     1  UNL1        0.0288
@<TRIPOS>BOND
     1    18    19    1
     2    19    20   ar
     3    19    24   ar
     4    20    21   ar
     5    21    22   ar
     6    22    23   ar
     7    23    16    1
     8    23    24   ar
     9    16    10    1
    10    16    17    1
    11    10    11   ar
    12    10    15   ar
    13    11    12   ar
    14    12    13   ar
    15    13    14   ar
    16    14    15   ar
    17    15     6    1
    18     6     7    2
    19     6     8   am
    20     8     5    1
    21     8     9    1
    22     5     1    1
    23     1     2    2
    24     1     3   am
    25     3    26    1
    26     3     4    1
    27    26    27    1
    28    27    28    1
    29    28    29    1
    30    29    30    1
    31    30    31    1
    32    31    32    1
    33    32    33    1
    34    33    34    1
    35    34    36    1
    36    34    35    1
    37    36    37   ar
    38    36    46   ar
    39    37    38   ar
    40    37    50    1
    41    38    39   ar
    42    38    47    1
    43    39    40   ar
    44    40    41   ar
    45    40    46   ar
    46    41    42   ar
    47    42    43    1
    48    42    44   ar
    49    44    45   ar
    50    45    46   ar
    51    47    48    1
    52    48    49    1
    53    49    50    1
    54    24    25    1
#	Name:			CHEMBL3221568
#	Creating user name:	trannguyen
#	Creation time:		Tue Feb  8 17:54:08 2022


#	Modifying user name:	trannguyen
#	Modification time:	Tue Feb  8 17:54:08 2022

@<TRIPOS>MOLECULE
CHEMBL3221568
 51 55 0 0 0
SMALL
GASTEIGER

@<TRIPOS>ATOM
      1 C          -1.5032   63.9340   76.8142 C.2     1  UNL1        0.2242
      2 O          -2.2338   64.6045   76.0906 O.2     1  UNL1       -0.2750
      3 N          -1.5972   63.9202   78.1881 N.am    1  UNL1       -0.3043
      4 H          -0.8059   63.5837   78.7200 H       1  UNL1        0.1494
      5 C          -2.5557   64.7417   78.8913 C.3     1  UNL1        0.0894
      6 C          -3.9723   64.2025   78.7011 C.3     1  UNL1        0.0212
      7 C          -4.2094   62.8952   79.4585 C.3     1  UNL1        0.0017
      8 C          -4.7192   61.7931   78.5326 C.3     1  UNL1        0.0001
      9 C          -6.1824   61.4476   78.7842 C.3     1  UNL1        0.0001
     10 C          -7.0675   62.5519   78.2085 C.3     1  UNL1        0.0017
     11 C          -8.2074   62.0040   77.3529 C.3     1  UNL1        0.0212
     12 C          -7.7575   61.7661   75.9072 C.3     1  UNL1        0.0870
     13 N          -7.9747   60.3832   75.5113 N.pl3   1  UNL1       -0.3328
     14 H          -8.8992   60.2207   75.1140 H       1  UNL1        0.1468
     15 C          -7.5264   59.2698   76.2324 C.ar    1  UNL1        0.0431
     16 C          -8.3259   58.4752   77.0875 C.ar    1  UNL1        0.0045
     17 C          -7.7033   57.4021   77.7327 C.ar    1  UNL1        0.0561
     18 N          -6.4234   57.0501   77.5015 N.ar    1  UNL1       -0.2499
     19 C          -5.6747   57.7623   76.6670 C.ar    1  UNL1        0.0829
     20 C          -4.3694   57.3440   76.4651 C.ar    1  UNL1        0.0305
     21 C          -3.5049   58.0519   75.6392 C.ar    1  UNL1        0.0592
     22 CL         -1.8917   57.4991   75.4117 Cl      1  UNL1       -0.0822
     23 C          -3.9397   59.2052   75.0063 C.ar    1  UNL1        0.0115
     24 C          -5.2578   59.6255   75.1921 C.ar    1  UNL1        0.0036
     25 C          -6.1603   58.9002   76.0130 C.ar    1  UNL1        0.0305
     26 C          -8.4199   56.5084   78.7106 C.3     1  UNL1        0.0455
     27 C          -9.6779   57.1433   79.2802 C.3     1  UNL1        0.0066
     28 C         -10.5323   57.6412   78.1282 C.3     1  UNL1        0.0052
     29 C          -9.7931   58.7318   77.3484 C.3     1  UNL1        0.0288
     30 C          -0.4361   63.0033   76.2400 C.3     1  UNL1        0.1062
     31 C          -0.3730   61.6770   77.0079 C.3     1  UNL1        0.0993
     32 C           1.1865   61.7524   78.9981 C.2     1  UNL1        0.2471
     33 O           0.3515   62.3115   79.7257 O.2     1  UNL1       -0.2701
     34 N           0.9160   61.4216   77.6842 N.am    1  UNL1       -0.3003
     35 H           1.5925   60.8842   77.1492 H       1  UNL1        0.1498
     36 C           2.5955   60.1416   80.3788 C.ar    1  UNL1        0.0527
     37 C           3.8746   59.6642   80.7212 C.ar    1  UNL1        0.0148
     38 C           5.0376   60.3350   80.3337 C.ar    1  UNL1        0.0013
     39 C           4.9414   61.5288   79.6304 C.ar    1  UNL1        0.0002
     40 C           3.6844   62.0290   79.2747 C.ar    1  UNL1        0.0058
     41 C           2.5106   61.3097   79.5724 C.ar    1  UNL1        0.0667
     42 N           1.4347   59.4198   80.7595 N.pl3   1  UNL1       -0.3127
     43 H           1.2526   59.5148   81.7676 H       1  UNL1        0.1522
     44 C          -2.7358   57.1054   79.2583 C.3     1  UNL1        0.0307
     45 C          -1.2429   57.1578   79.4369 C.ar    1  UNL1       -0.0246
     46 C          -0.4731   56.0663   79.0116 C.ar    1  UNL1       -0.0045
     47 C           0.9043   56.0558   79.2125 C.ar    1  UNL1        0.0009
     48 C           1.5336   57.1448   79.8204 C.ar    1  UNL1        0.0143
     49 C           0.8033   58.2806   80.2079 C.ar    1  UNL1        0.0440
     50 C          -0.6049   58.2761   80.0356 C.ar    1  UNL1       -0.0124
     51 C          -1.4483   59.4501   80.4809 C.3     1  UNL1        0.0320
@<TRIPOS>BOND
     1    44    45    1
     2    45    46   ar
     3    45    50   ar
     4    46    47   ar
     5    47    48   ar
     6    48    49   ar
     7    49    42    1
     8    49    50   ar
     9    42    36    1
    10    42    43    1
    11    36    37   ar
    12    36    41   ar
    13    37    38   ar
    14    38    39   ar
    15    39    40   ar
    16    40    41   ar
    17    41    32    1
    18    32    33    2
    19    32    34   am
    20    34    31    1
    21    34    35    1
    22    31    30    1
    23    30     1    1
    24     1     2    2
    25     1     3   am
    26     3     5    1
    27     3     4    1
    28     5     6    1
    29     6     7    1
    30     7     8    1
    31     8     9    1
    32     9    10    1
    33    10    11    1
    34    11    12    1
    35    12    13    1
    36    13    15    1
    37    13    14    1
    38    15    16   ar
    39    15    25   ar
    40    16    17   ar
    41    16    29    1
    42    17    18   ar
    43    17    26    1
    44    18    19   ar
    45    19    20   ar
    46    19    25   ar
    47    20    21   ar
    48    21    22    1
    49    21    23   ar
    50    23    24   ar
    51    24    25   ar
    52    26    27    1
    53    27    28    1
    54    28    29    1
    55    50    51    1
#	Name:			CHEMBL3221569
#	Creating user name:	trannguyen
#	Creation time:		Tue Feb  8 17:54:08 2022


#	Modifying user name:	trannguyen
#	Modification time:	Tue Feb  8 17:54:08 2022

@<TRIPOS>MOLECULE
CHEMBL3221569
 52 56 0 0 0
SMALL
GASTEIGER

@<TRIPOS>ATOM
      1 C           0.2990   65.0951   71.4883 C.2     1  UNL1        0.2225
      2 O          -0.4362   64.8156   70.5566 O.2     1  UNL1       -0.2751
      3 N           0.0694   64.5100   72.7002 N.am    1  UNL1       -0.3043
      4 H          -0.6258   63.7736   72.6351 H       1  UNL1        0.1494
      5 C           1.4428   66.0905   71.3700 C.3     1  UNL1        0.0868
      6 C           1.7600   66.4153   69.9088 C.3     1  UNL1        0.0308
      7 C           1.2813   67.8110   69.5170 C.3     1  UNL1        0.0902
      8 C           2.3768   69.2359   67.7893 C.2     1  UNL1        0.2471
      9 O           1.3874   69.2389   67.0651 O.2     1  UNL1       -0.2701
     10 N           2.3824   68.6330   69.0458 N.am    1  UNL1       -0.3008
     11 H           3.2145   68.6627   69.6180 H       1  UNL1        0.1497
     12 C           4.2202   69.6303   66.0383 C.ar    1  UNL1        0.0527
     13 C           5.5368   70.1076   65.8067 C.ar    1  UNL1        0.0148
     14 C           6.3206   70.6844   66.8083 C.ar    1  UNL1        0.0013
     15 C           5.8128   70.8055   68.0884 C.ar    1  UNL1        0.0002
     16 C           4.5192   70.3598   68.3494 C.ar    1  UNL1        0.0058
     17 C           3.6932   69.7979   67.3357 C.ar    1  UNL1        0.0667
     18 N           3.6126   69.0110   64.9278 N.pl3   1  UNL1       -0.3127
     19 H           2.6920   69.3955   64.7331 H       1  UNL1        0.1522
     20 C           3.5217   64.0801   64.5429 C.3     1  UNL1        0.0307
     21 C           3.8210   65.4258   63.9447 C.ar    1  UNL1       -0.0246
     22 C           4.5598   65.5071   62.7609 C.ar    1  UNL1       -0.0045
     23 C           4.8918   66.7540   62.2291 C.ar    1  UNL1        0.0009
     24 C           4.5648   67.9317   62.9180 C.ar    1  UNL1        0.0143
     25 C           3.8423   67.8807   64.1122 C.ar    1  UNL1        0.0440
     26 C           3.3602   66.6201   64.5503 C.ar    1  UNL1       -0.0124
     27 C           2.2534   66.5339   65.5787 C.3     1  UNL1        0.0320
     28 C           0.8242   64.6695   73.9251 C.3     1  UNL1        0.0894
     29 C          -0.1015   64.9827   75.0933 C.3     1  UNL1        0.0212
     30 C          -0.7957   63.7214   75.5987 C.3     1  UNL1        0.0017
     31 C          -0.6361   63.5613   77.1109 C.3     1  UNL1        0.0001
     32 C          -1.9158   63.0045   77.7330 C.3     1  UNL1        0.0001
     33 C          -1.6272   61.8399   78.6826 C.3     1  UNL1        0.0017
     34 C          -2.3522   60.5772   78.2149 C.3     1  UNL1        0.0212
     35 C          -1.9555   60.1181   76.8088 C.3     1  UNL1        0.0870
     36 N          -0.5146   60.0106   76.6825 N.pl3   1  UNL1       -0.3328
     37 H          -0.1668   60.4380   75.8284 H       1  UNL1        0.1468
     38 C           0.3282   59.0352   77.2496 C.ar    1  UNL1        0.0431
     39 C           1.4117   59.5392   78.0330 C.ar    1  UNL1        0.0045
     40 C           2.2515   58.6386   78.6986 C.ar    1  UNL1        0.0561
     41 N           2.0591   57.3040   78.7005 N.ar    1  UNL1       -0.2499
     42 C           1.0650   56.8022   77.9577 C.ar    1  UNL1        0.0829
     43 C           0.9855   55.4101   77.9462 C.ar    1  UNL1        0.0305
     44 C           0.0631   54.7357   77.1541 C.ar    1  UNL1        0.0592
     45 CL          0.0293   53.0126   77.1381 Cl      1  UNL1       -0.0822
     46 C          -0.8181   55.4447   76.3626 C.ar    1  UNL1        0.0115
     47 C          -0.7786   56.8464   76.3889 C.ar    1  UNL1        0.0036
     48 C           0.1571   57.5936   77.1850 C.ar    1  UNL1        0.0305
     49 C           3.4526   59.0984   79.4832 C.3     1  UNL1        0.0455
     50 C           3.9522   60.4681   79.0451 C.3     1  UNL1        0.0066
     51 C           2.7935   61.4500   79.0710 C.3     1  UNL1        0.0052
     52 C           1.7076   61.0278   78.0814 C.3     1  UNL1        0.0288
@<TRIPOS>BOND
     1    20    21    1
     2    21    22   ar
     3    21    26   ar
     4    22    23   ar
     5    23    24   ar
     6    24    25   ar
     7    25    18    1
     8    25    26   ar
     9    18    12    1
    10    18    19    1
    11    12    13   ar
    12    12    17   ar
    13    13    14   ar
    14    14    15   ar
    15    15    16   ar
    16    16    17   ar
    17    17     8    1
    18     8     9    2
    19     8    10   am
    20    10     7    1
    21    10    11    1
    22     7     6    1
    23     6     5    1
    24     5     1    1
    25     1     2    2
    26     1     3   am
    27     3    28    1
    28     3     4    1
    29    28    29    1
    30    29    30    1
    31    30    31    1
    32    31    32    1
    33    32    33    1
    34    33    34    1
    35    34    35    1
    36    35    36    1
    37    36    38    1
    38    36    37    1
    39    38    39   ar
    40    38    48   ar
    41    39    40   ar
    42    39    52    1
    43    40    41   ar
    44    40    49    1
    45    41    42   ar
    46    42    43   ar
    47    42    48   ar
    48    43    44   ar
    49    44    45    1
    50    44    46   ar
    51    46    47   ar
    52    47    48   ar
    53    49    50    1
    54    50    51    1
    55    51    52    1
    56    26    27    1
#	Name:			CHEMBL3221570
#	Creating user name:	trannguyen
#	Creation time:		Tue Feb  8 17:54:08 2022


#	Modifying user name:	trannguyen
#	Modification time:	Tue Feb  8 17:54:08 2022

@<TRIPOS>MOLECULE
CHEMBL3221570
 54 58 0 0 0
SMALL
GASTEIGER

@<TRIPOS>ATOM
      1 C          -0.6296   62.5157   76.2581 C.2     1  UNL1        0.2225
      2 O          -1.1659   63.0852   75.3063 O.2     1  UNL1       -0.2751
      3 N           0.5633   61.8960   76.0452 N.am    1  UNL1       -0.3043
      4 H           0.8698   62.0003   75.0846 H       1  UNL1        0.1494
      5 C          -1.2763   62.4934   77.6308 C.3     1  UNL1        0.0850
      6 C          -1.0702   63.7867   78.4349 C.3     1  UNL1        0.0096
      7 C          -2.3695   64.2155   79.1525 C.3     1  UNL1        0.0023
      8 C          -3.5837   64.3436   78.2130 C.3     1  UNL1        0.0213
      9 C          -3.8711   65.7950   77.7945 C.3     1  UNL1        0.0897
     10 C          -6.0565   66.4746   78.8094 C.2     1  UNL1        0.2471
     11 O          -5.4988   66.7368   79.9011 O.2     1  UNL1       -0.2701
     12 N          -5.3038   66.0601   77.7305 N.am    1  UNL1       -0.3008
     13 H          -5.7703   65.8488   76.8535 H       1  UNL1        0.1497
     14 C          -8.3207   65.5614   77.9629 C.ar    1  UNL1        0.0527
     15 C          -9.6979   65.8507   77.7660 C.ar    1  UNL1        0.0148
     16 C         -10.3044   67.0192   78.2457 C.ar    1  UNL1        0.0013
     17 C          -9.5520   67.9265   78.9671 C.ar    1  UNL1        0.0002
     18 C          -8.1943   67.6725   79.1857 C.ar    1  UNL1        0.0058
     19 C          -7.5468   66.5075   78.6964 C.ar    1  UNL1        0.0667
     20 N          -7.8605   64.3566   77.3669 N.pl3   1  UNL1       -0.3127
     21 H          -8.0551   64.3223   76.3707 H       1  UNL1        0.1522
     22 C          -7.5642   59.4295   76.7356 C.3     1  UNL1        0.0307
     23 C          -7.1388   60.6717   77.4797 C.ar    1  UNL1       -0.0246
     24 C          -6.5522   60.5526   78.7393 C.ar    1  UNL1       -0.0045
     25 C          -6.3591   61.6873   79.5251 C.ar    1  UNL1        0.0009
     26 C          -6.8279   62.9390   79.1009 C.ar    1  UNL1        0.0143
     27 C          -7.3763   63.1079   77.8279 C.ar    1  UNL1        0.0440
     28 C          -7.4053   61.9697   76.9729 C.ar    1  UNL1       -0.0124
     29 C          -7.5358   62.1110   75.4754 C.3     1  UNL1        0.0320
     30 C           1.4247   61.1717   76.9677 C.3     1  UNL1        0.0894
     31 C           1.8250   59.7866   76.4206 C.3     1  UNL1        0.0212
     32 C           0.5727   58.9398   76.1482 C.3     1  UNL1        0.0017
     33 C           0.1557   57.9929   77.2743 C.3     1  UNL1        0.0001
     34 C           1.3812   57.5732   78.1061 C.3     1  UNL1        0.0001
     35 C           1.0320   56.6464   79.2881 C.3     1  UNL1        0.0017
     36 C          -0.1330   57.1162   80.1867 C.3     1  UNL1        0.0212
     37 C          -0.8850   55.9274   80.7594 C.3     1  UNL1        0.0870
     38 N          -2.2229   55.7196   80.2032 N.pl3   1  UNL1       -0.3328
     39 H          -2.8771   56.4173   80.5351 H       1  UNL1        0.1468
     40 C          -2.3828   55.4235   78.8144 C.ar    1  UNL1        0.0431
     41 C          -1.9667   54.1921   78.2359 C.ar    1  UNL1        0.0045
     42 C          -2.2446   53.9530   76.8852 C.ar    1  UNL1        0.0561
     43 N          -2.9479   54.7952   76.1100 N.ar    1  UNL1       -0.2499
     44 C          -3.2723   55.9836   76.6007 C.ar    1  UNL1        0.0829
     45 C          -3.7869   56.8663   75.6687 C.ar    1  UNL1        0.0305
     46 C          -4.0193   58.1917   75.9935 C.ar    1  UNL1        0.0592
     47 CL         -4.5024   59.2987   74.7678 Cl      1  UNL1       -0.0822
     48 C          -3.8032   58.6307   77.2900 C.ar    1  UNL1        0.0115
     49 C          -3.3368   57.7309   78.2604 C.ar    1  UNL1        0.0036
     50 C          -3.0217   56.3808   77.9399 C.ar    1  UNL1        0.0305
     51 C          -1.6851   52.7579   76.1564 C.3     1  UNL1        0.0455
     52 C          -0.3938   52.2566   76.7877 C.3     1  UNL1        0.0066
     53 C          -0.6697   51.9374   78.2380 C.3     1  UNL1        0.0052
     54 C          -1.1068   53.1919   78.9627 C.3     1  UNL1        0.0288
@<TRIPOS>BOND
     1    22    23    1
     2    23    24   ar
     3    23    28   ar
     4    24    25   ar
     5    25    26   ar
     6    26    27   ar
     7    27    20    1
     8    27    28   ar
     9    20    14    1
    10    20    21    1
    11    14    15   ar
    12    14    19   ar
    13    15    16   ar
    14    16    17   ar
    15    17    18   ar
    16    18    19   ar
    17    19    10    1
    18    10    11    2
    19    10    12   am
    20    12     9    1
    21    12    13    1
    22     9     8    1
    23     8     7    1
    24     7     6    1
    25     6     5    1
    26     5     1    1
    27     1     2    2
    28     1     3   am
    29     3    30    1
    30     3     4    1
    31    30    31    1
    32    31    32    1
    33    32    33    1
    34    33    34    1
    35    34    35    1
    36    35    36    1
    37    36    37    1
    38    37    38    1
    39    38    40    1
    40    38    39    1
    41    40    41   ar
    42    40    50   ar
    43    41    42   ar
    44    41    54    1
    45    42    43   ar
    46    42    51    1
    47    43    44   ar
    48    44    45   ar
    49    44    50   ar
    50    45    46   ar
    51    46    47    1
    52    46    48   ar
    53    48    49   ar
    54    49    50   ar
    55    51    52    1
    56    52    53    1
    57    53    54    1
    58    28    29    1
#	Name:			CHEMBL322727
#	Creating user name:	trannguyen
#	Creation time:		Tue Feb  8 17:54:08 2022


#	Modifying user name:	trannguyen
#	Modification time:	Tue Feb  8 17:54:08 2022

@<TRIPOS>MOLECULE
CHEMBL322727
 14 14 0 0 0
SMALL
GASTEIGER

@<TRIPOS>ATOM
      1 C           4.3670   70.0186   67.4097 C.ar    1  UNL1        0.0428
      2 C           3.0679   69.5087   67.3679 C.ar    1  UNL1        0.0031
      3 C           2.5496   69.0043   66.1765 C.ar    1  UNL1       -0.0002
      4 C           3.3374   68.9705   65.0276 C.ar    1  UNL1       -0.0034
      5 C           4.6582   69.4394   65.0533 C.ar    1  UNL1       -0.0107
      6 C           5.1643   69.9739   66.2508 C.ar    1  UNL1       -0.0003
      7 O           4.2037   70.7264   69.6274 O.2     1  UNL1       -0.2825
      8 C           4.9522   70.5750   68.6622 C.2     1  UNL1        0.2666
      9 C           6.4392   70.9253   68.6905 C.3     1  UNL1        0.4554
     10 F           7.2376   70.1062   67.9501 F       1  UNL1       -0.1631
     11 F           6.6725   72.1865   68.2302 F       1  UNL1       -0.1631
     12 F           6.9486   70.8793   69.9537 F       1  UNL1       -0.1631
     13 C           5.5023   69.3806   63.8132 C.3     1  UNL1        0.0938
     14 BR          4.4409   68.6912   62.3400 Br      1  UNL1       -0.0756
@<TRIPOS>BOND
     1     7     8    2
     2     8     1    1
     3     8     9    1
     4     1     2   ar
     5     1     6   ar
     6     2     3   ar
     7     3     4   ar
     8     4     5   ar
     9     5    13    1
    10     5     6   ar
    11    13    14    1
    12     9    10    1
    13     9    11    1
    14     9    12    1
#	Name:			CHEMBL322994
#	Creating user name:	trannguyen
#	Creation time:		Tue Feb  8 17:54:08 2022


#	Modifying user name:	trannguyen
#	Modification time:	Tue Feb  8 17:54:08 2022

@<TRIPOS>MOLECULE
CHEMBL322994
 30 33 0 0 0
SMALL
GASTEIGER

@<TRIPOS>ATOM
      1 C          -1.8620   56.3008   78.4095 C.ar    1  UNL1        0.0442
      2 C          -0.7660   57.1375   78.0890 C.ar    1  UNL1        0.0045
      3 C           0.0275   56.8043   76.9823 C.ar    1  UNL1        0.0561
      4 N          -0.2796   55.8245   76.1161 N.ar    1  UNL1       -0.2499
      5 C          -1.3257   55.0486   76.3669 C.ar    1  UNL1        0.0829
      6 C          -1.5562   54.0880   75.3903 C.ar    1  UNL1        0.0192
      7 C          -2.5532   53.1337   75.5127 C.ar    1  UNL1        0.0024
      8 C          -3.3049   53.1178   76.6729 C.ar    1  UNL1        0.0115
      9 C          -3.0979   54.0979   77.6654 C.ar    1  UNL1        0.0603
     10 CL         -4.0501   53.8931   79.1028 Cl      1  UNL1       -0.0822
     11 C          -2.1317   55.1543   77.5302 C.ar    1  UNL1        0.0410
     12 C           1.3244   57.5256   76.6945 C.3     1  UNL1        0.0455
     13 C           1.1021   58.9292   76.1402 C.3     1  UNL1        0.0063
     14 C           0.7068   59.9699   77.1922 C.3     1  UNL1        0.0007
     15 C          -0.5450   59.6230   78.0036 C.3     1  UNL1        0.0048
     16 C          -0.3360   58.3612   78.8576 C.3     1  UNL1        0.0288
     17 N          -2.6261   56.4981   79.5793 N.pl3   1  UNL1       -0.3288
     18 H          -2.8939   55.6192   80.0162 H       1  UNL1        0.1471
     19 C          -3.6717   57.5166   79.7858 C.3     1  UNL1        0.1208
     20 C          -5.7469   58.7457   76.6156 C.ar    1  UNL1        0.0723
     21 C          -6.2941   57.5277   76.9835 C.ar    1  UNL1        0.0099
     22 C          -5.6251   56.9339   78.1041 C.ar    1  UNL1        0.0044
     23 C          -4.5833   57.7083   78.5798 C.ar    1  UNL1        0.0270
     24 S          -4.3598   59.0837   77.5825 S.2     1  UNL1       -0.0864
     25 O          -5.5658   59.8090   74.5131 O.2     1  UNL1       -0.2819
     26 C          -6.1130   59.7590   75.6082 C.2     1  UNL1        0.2725
     27 C          -7.2053   60.7814   75.9397 C.3     1  UNL1        0.4560
     28 F          -7.2128   61.9086   75.1775 F       1  UNL1       -0.1630
     29 F          -8.4555   60.2458   75.8190 F       1  UNL1       -0.1630
     30 F          -7.1100   61.2127   77.2319 F       1  UNL1       -0.1630
@<TRIPOS>BOND
     1    25    26    2
     2    26    20    1
     3    26    27    1
     4    20    21   ar
     5    20    24   ar
     6    21    22   ar
     7    22    23   ar
     8    23    19    1
     9    23    24   ar
    10    19    17    1
    11    17     1    1
    12    17    18    1
    13     1     2   ar
    14     1    11   ar
    15     2     3   ar
    16     2    16    1
    17     3     4   ar
    18     3    12    1
    19     4     5   ar
    20     5     6   ar
    21     5    11   ar
    22     6     7   ar
    23     7     8   ar
    24     8     9   ar
    25     9    10    1
    26     9    11   ar
    27    12    13    1
    28    13    14    1
    29    14    15    1
    30    15    16    1
    31    27    28    1
    32    27    29    1
    33    27    30    1
#	Name:			CHEMBL338975
#	Creating user name:	trannguyen
#	Creation time:		Tue Feb  8 17:54:08 2022


#	Modifying user name:	trannguyen
#	Modification time:	Tue Feb  8 17:54:08 2022

@<TRIPOS>MOLECULE
CHEMBL338975
 21 23 0 0 0
SMALL
GASTEIGER

@<TRIPOS>ATOM
      1 C          -0.3270   61.8385   76.9773 C.ar    1  UNL1        0.1498
      2 C           0.9724   61.3794   76.7207 C.ar    1  UNL1        0.0389
      3 C           1.2237   60.0056   76.5998 C.ar    1  UNL1        0.0174
      4 C           0.1740   59.1049   76.7323 C.ar    1  UNL1        0.0450
      5 C          -1.1150   59.5880   76.9504 C.ar    1  UNL1       -0.0035
      6 C          -1.3897   60.9447   77.0617 C.ar    1  UNL1        0.0347
      7 C          -2.0704   58.4473   77.0721 C.3     1  UNL1        0.0525
      8 C          -3.1675   58.5091   76.0046 C.3     1  UNL1        0.0075
      9 C          -2.6472   58.2912   78.4785 C.3     1  UNL1        0.0244
     10 C          -2.6886   56.7871   78.6546 C.3     1  UNL1        0.0740
     11 N          -1.4200   56.3425   78.0770 N.3     1  UNL1       -0.2567
     12 C          -1.4501   54.9252   77.7432 C.3     1  UNL1        0.0909
     13 C          -1.1347   57.1970   76.9021 C.3     1  UNL1        0.1380
     14 N           0.2346   57.7033   76.6302 N.pl3   1  UNL1       -0.2945
     15 C           1.3462   57.0733   77.3252 C.3     1  UNL1        0.1134
     16 O          -0.4971   63.2366   77.0744 O.3     1  UNL1       -0.4103
     17 C          -2.6933   64.8248   77.5768 C.3     1  UNL1        0.1140
     18 N          -2.0376   64.7655   76.2993 N.am    1  UNL1       -0.2686
     19 C          -0.9720   63.9684   75.9879 C.2     1  UNL1        0.4062
     20 O          -0.5361   63.9424   74.8424 O.2     1  UNL1       -0.2260
     21 H          -2.3967   65.3013   75.5206 H       1  UNL1        0.1528
@<TRIPOS>BOND
     1    17    18    1
     2    18    19   am
     3    18    21    1
     4    19    20    2
     5    19    16    1
     6    16     1    1
     7     1     2   ar
     8     1     6   ar
     9     2     3   ar
    10     3     4   ar
    11     4     5   ar
    12     4    14    1
    13     5     6   ar
    14     5     7    1
    15     7     8    1
    16     7     9    1
    17     7    13    1
    18     9    10    1
    19    10    11    1
    20    11    12    1
    21    11    13    1
    22    13    14    1
    23    14    15    1
#	Name:			CHEMBL3604283
#	Creating user name:	trannguyen
#	Creation time:		Tue Feb  8 17:54:08 2022


#	Modifying user name:	trannguyen
#	Modification time:	Tue Feb  8 17:54:08 2022

@<TRIPOS>MOLECULE
CHEMBL3604283
 47 53 0 0 0
SMALL
GASTEIGER

@<TRIPOS>ATOM
      1 C          -8.9491   66.4420   74.1524 C.3     1  UNL1        0.0016
      2 C          -9.0512   66.5684   75.6699 C.3     1  UNL1        0.0173
      3 C          -9.3921   65.2328   76.3393 C.3     1  UNL1        0.0724
      4 C          -5.0160   61.2335   79.2702 C.ar    1  UNL1        0.1721
      5 C          -6.0009   60.6717   78.4600 C.ar    1  UNL1        0.0397
      6 C          -6.8552   61.4962   77.6986 C.ar    1  UNL1        0.0001
      7 C          -6.7706   62.8995   77.7438 C.ar    1  UNL1       -0.0066
      8 C          -5.8199   63.4402   78.6013 C.ar    1  UNL1        0.0187
      9 C          -4.9696   62.6155   79.3369 C.ar    1  UNL1        0.1682
     10 O          -4.1117   63.3244   80.1507 O.3     1  UNL1       -0.4757
     11 C          -4.7924   64.6008   80.2814 C.3     1  UNL1        0.1761
     12 C          -3.7756   65.6829   80.6404 C.3     1  UNL1        0.0779
     13 C          -2.7998   65.9529   79.4956 C.3     1  UNL1        0.1358
     14 O          -1.8514   64.9019   79.3938 O.3     1  UNL1       -0.3799
     15 C          -3.4711   66.0521   78.1673 C.2     1  UNL1       -0.0015
     16 C          -4.7059   65.5781   77.9209 C.2     1  UNL1       -0.0213
     17 C          -5.5663   64.8707   78.9504 C.3     1  UNL1        0.0780
     18 C          -6.8794   65.6128   79.2417 C.3     1  UNL1        0.0290
     19 C          -7.7796   65.9054   78.0309 C.3     1  UNL1        0.0732
     20 N          -8.4951   64.7570   77.4310 N.3     1  UNL1       -0.2689
     21 C          -7.5942   63.7571   76.8150 C.3     1  UNL1        0.0989
     22 H          -2.3526   64.0622   79.4114 H       1  UNL1        0.2108
     23 C          -3.0119   59.9688   79.3403 C.3     1  UNL1        0.2526
     24 O          -4.1101   60.5487   80.0243 O.3     1  UNL1       -0.4684
     25 C         -10.2574   66.8510   73.4679 C.3     1  UNL1        0.0039
     26 C          -9.9702   67.7263   72.2401 C.3     1  UNL1        0.0473
     27 C         -10.5539   69.1341   72.3448 C.3     1  UNL1        0.2054
     28 O         -10.5113   69.7639   71.0642 O.3     1  UNL1       -0.4755
     29 C         -10.4525   71.1307   71.0481 C.ar    1  UNL1        0.1385
     30 C         -10.3824   71.7273   72.3069 C.ar    1  UNL1        0.0366
     31 C         -10.1817   73.1068   72.4329 C.ar    1  UNL1        0.0005
     32 C         -10.0532   73.9137   71.2901 C.ar    1  UNL1       -0.0024
     33 C         -10.1968   73.3142   70.0282 C.ar    1  UNL1        0.0005
     34 C         -10.4167   71.9371   69.9106 C.ar    1  UNL1        0.0366
     35 C          -9.7435   75.3963   71.3866 C.3     1  UNL1        0.1143
     36 N          -8.3201   75.6161   71.6515 N.pl3   1  UNL1       -0.3291
     37 H          -7.8677   76.1537   70.9128 H       1  UNL1        0.1471
     38 C          -7.8616   75.9991   72.9223 C.ar    1  UNL1        0.0450
     39 C          -7.5660   74.9996   73.8703 C.ar    1  UNL1        0.0158
     40 C          -7.1320   75.2942   75.1738 C.ar    1  UNL1        0.0182
     41 C          -7.0146   76.6419   75.5206 C.ar    1  UNL1        0.0567
     42 N          -6.5989   77.2244   76.6974 N.ar    1  UNL1       -0.3520
     43 H          -6.2915   76.7104   77.5113 H       1  UNL1        0.1660
     44 C          -6.6593   78.5896   76.5995 C.ar    1  UNL1        0.0724
     45 C          -7.1392   78.8966   75.3455 C.ar    1  UNL1        0.0199
     46 C          -7.3502   77.6724   74.6452 C.ar    1  UNL1        0.0183
     47 C          -7.8061   77.3388   73.3466 C.ar    1  UNL1        0.0158
@<TRIPOS>BOND
     1    23    24    1
     2    24     4    1
     3     4     5   ar
     4     4     9   ar
     5     5     6   ar
     6     6     7   ar
     7     7     8   ar
     8     7    21    1
     9     8     9   ar
    10     8    17    1
    11     9    10    1
    12    10    11    1
    13    11    12    1
    14    11    17    1
    15    12    13    1
    16    13    14    1
    17    13    15    1
    18    14    22    1
    19    15    16    2
    20    17    16    1
    21    17    18    1
    22    18    19    1
    23    19    20    1
    24    20     3    1
    25    20    21    1
    26     3     2    1
    27     2     1    1
    28     1    25    1
    29    25    26    1
    30    26    27    1
    31    27    28    1
    32    28    29    1
    33    29    30   ar
    34    29    34   ar
    35    30    31   ar
    36    31    32   ar
    37    32    35    1
    38    32    33   ar
    39    35    36    1
    40    36    38    1
    41    36    37    1
    42    38    39   ar
    43    38    47   ar
    44    39    40   ar
    45    40    41   ar
    46    41    42   ar
    47    41    46   ar
    48    42    43    1
    49    42    44   ar
    50    44    45   ar
    51    45    46   ar
    52    46    47   ar
    53    33    34   ar
#	Name:			CHEMBL3604335
#	Creating user name:	trannguyen
#	Creation time:		Tue Feb  8 17:54:08 2022


#	Modifying user name:	trannguyen
#	Modification time:	Tue Feb  8 17:54:08 2022

@<TRIPOS>MOLECULE
CHEMBL3604335
 38 43 0 0 0
SMALL
GASTEIGER

@<TRIPOS>ATOM
      1 C           4.6282   64.5763   63.7229 C.ar    1  UNL1        0.1721
      2 C           3.7940   63.8962   64.6115 C.ar    1  UNL1        0.0397
      3 C           2.7935   64.5763   65.3329 C.ar    1  UNL1        0.0001
      4 C           2.5860   65.9573   65.1669 C.ar    1  UNL1       -0.0066
      5 C           3.4187   66.6173   64.2741 C.ar    1  UNL1        0.0187
      6 C           4.4183   65.9360   63.5790 C.ar    1  UNL1        0.1682
      7 O           5.1168   66.7531   62.7284 O.3     1  UNL1       -0.4757
      8 C           4.8324   68.0824   63.2156 C.3     1  UNL1        0.1761
      9 C           4.9820   69.0558   62.0481 C.3     1  UNL1        0.0779
     10 C           3.9040   68.8426   60.9855 C.3     1  UNL1        0.1358
     11 O           4.1924   67.6982   60.1921 O.3     1  UNL1       -0.3799
     12 C           2.5416   68.6583   61.5654 C.2     1  UNL1       -0.0015
     13 C           2.3135   68.3362   62.8584 C.2     1  UNL1       -0.0213
     14 C           3.4160   68.0595   63.8667 C.3     1  UNL1        0.0780
     15 C           3.3940   69.0211   65.0644 C.3     1  UNL1        0.0290
     16 C           2.1321   69.0153   65.9328 C.3     1  UNL1        0.0732
     17 N           1.9328   67.7865   66.7295 N.3     1  UNL1       -0.2689
     18 C           1.4664   66.6682   65.8854 C.3     1  UNL1        0.0989
     19 H           4.3265   66.9519   60.8086 H       1  UNL1        0.2108
     20 C           5.8328   62.5420   63.6325 C.3     1  UNL1        0.2526
     21 O           5.5542   63.8193   63.0632 O.3     1  UNL1       -0.4684
     22 C           0.9610   68.0676   67.8056 C.3     1  UNL1        0.0724
     23 C           1.0877   67.1176   69.0077 C.3     1  UNL1        0.0173
     24 C           2.1504   67.6397   69.9780 C.3     1  UNL1        0.0016
     25 C           3.0089   68.7432   69.3575 C.3     1  UNL1        0.0039
     26 C           2.4783   70.1226   69.7598 C.3     1  UNL1        0.0473
     27 C           2.7301   71.1976   68.7039 C.3     1  UNL1        0.2054
     28 O           3.6650   70.7184   67.7368 O.3     1  UNL1       -0.4755
     29 C           4.9812   70.6830   68.1229 C.ar    1  UNL1        0.1386
     30 C           5.9014   70.6301   67.0732 C.ar    1  UNL1        0.0384
     31 C           7.2828   70.5979   67.3053 C.ar    1  UNL1        0.0201
     32 C           7.7114   70.6278   68.6361 C.ar    1  UNL1        0.0568
     33 N           8.9823   70.6171   69.1666 N.ar    1  UNL1       -0.3520
     34 H           9.8316   70.5840   68.6201 H       1  UNL1        0.1660
     35 C           8.9246   70.6612   70.5350 C.ar    1  UNL1        0.0724
     36 C           7.5984   70.6943   70.8993 C.ar    1  UNL1        0.0200
     37 C           6.8220   70.6760   69.7081 C.ar    1  UNL1        0.0201
     38 C           5.4365   70.6973   69.4466 C.ar    1  UNL1        0.0384
@<TRIPOS>BOND
     1    20    21    1
     2    21     1    1
     3     1     2   ar
     4     1     6   ar
     5     2     3   ar
     6     3     4   ar
     7     4     5   ar
     8     4    18    1
     9     5     6   ar
    10     5    14    1
    11     6     7    1
    12     7     8    1
    13     8     9    1
    14     8    14    1
    15     9    10    1
    16    10    11    1
    17    10    12    1
    18    11    19    1
    19    12    13    2
    20    14    13    1
    21    14    15    1
    22    15    16    1
    23    16    17    1
    24    17    22    1
    25    17    18    1
    26    22    23    1
    27    23    24    1
    28    24    25    1
    29    25    26    1
    30    26    27    1
    31    27    28    1
    32    28    29    1
    33    29    30   ar
    34    29    38   ar
    35    30    31   ar
    36    31    32   ar
    37    32    33   ar
    38    32    37   ar
    39    33    34    1
    40    33    35   ar
    41    35    36   ar
    42    36    37   ar
    43    37    38   ar
#	Name:			CHEMBL3604336
#	Creating user name:	trannguyen
#	Creation time:		Tue Feb  8 17:54:08 2022


#	Modifying user name:	trannguyen
#	Modification time:	Tue Feb  8 17:54:08 2022

@<TRIPOS>MOLECULE
CHEMBL3604336
 40 45 0 0 0
SMALL
GASTEIGER

@<TRIPOS>ATOM
      1 C          -1.9042   54.7907   76.2746 C.ar    1  UNL1        0.1721
      2 C          -3.0540   54.9801   75.5044 C.ar    1  UNL1        0.0397
      3 C          -3.7063   56.2234   75.4699 C.ar    1  UNL1        0.0001
      4 C          -3.2063   57.3193   76.1883 C.ar    1  UNL1       -0.0066
      5 C          -2.0767   57.1127   76.9663 C.ar    1  UNL1        0.0187
      6 C          -1.4410   55.8729   77.0058 C.ar    1  UNL1        0.1682
      7 O          -0.3144   55.8907   77.7888 O.3     1  UNL1       -0.4757
      8 C          -0.4798   57.0756   78.6076 C.3     1  UNL1        0.1761
      9 C           0.9017   57.5961   79.0063 C.3     1  UNL1        0.0779
     10 C           1.6779   58.1521   77.8125 C.3     1  UNL1        0.1358
     11 O           2.1956   57.1022   77.0087 O.3     1  UNL1       -0.3799
     12 C           0.8422   59.0248   76.9344 C.2     1  UNL1       -0.0015
     13 C          -0.4996   59.0326   76.9524 C.2     1  UNL1       -0.0213
     14 C          -1.3440   58.1050   77.8134 C.3     1  UNL1        0.0780
     15 C          -2.2747   58.8599   78.7836 C.3     1  UNL1        0.0290
     16 C          -3.3234   59.8048   78.1717 C.3     1  UNL1        0.0732
     17 N          -4.3796   59.1560   77.3612 N.3     1  UNL1       -0.2689
     18 C          -3.8388   58.6790   76.0785 C.3     1  UNL1        0.0989
     19 H           1.4426   56.5250   76.7750 H       1  UNL1        0.2108
     20 C          -1.9020   52.6776   75.2127 C.3     1  UNL1        0.2526
     21 O          -1.3451   53.5480   76.1901 O.3     1  UNL1       -0.4684
     22 C          -5.4851   60.1134   77.1507 C.3     1  UNL1        0.0724
     23 C          -6.4368   59.7404   76.0011 C.3     1  UNL1        0.0173
     24 C          -7.8291   59.4082   76.5367 C.3     1  UNL1        0.0019
     25 C          -7.9091   57.9605   77.0093 C.3     1  UNL1        0.0096
     26 C          -8.3077   57.8976   78.4821 C.3     1  UNL1        0.0854
     27 C          -7.3684   56.9703   79.2210 C.2     1  UNL1        0.2261
     28 O          -7.7319   56.4527   80.2736 O.2     1  UNL1       -0.2748
     29 N          -6.1553   56.7862   78.5791 N.am    1  UNL1       -0.2839
     30 H          -5.9685   57.3520   77.7594 H       1  UNL1        0.1549
     31 C          -5.1397   55.8756   78.9497 C.ar    1  UNL1        0.0504
     32 C          -4.1490   56.1806   79.8855 C.ar    1  UNL1        0.0161
     33 C          -3.1839   55.2540   80.2698 C.ar    1  UNL1        0.0182
     34 C          -3.2380   53.9875   79.6939 C.ar    1  UNL1        0.0567
     35 N          -2.4311   52.8908   79.9024 N.ar    1  UNL1       -0.3520
     36 H          -1.6483   52.8689   80.5399 H       1  UNL1        0.1660
     37 C          -2.8578   51.8460   79.1281 C.ar    1  UNL1        0.0724
     38 C          -3.9452   52.2746   78.4002 C.ar    1  UNL1        0.0199
     39 C          -4.1981   53.6305   78.7536 C.ar    1  UNL1        0.0183
     40 C          -5.1606   54.5930   78.3693 C.ar    1  UNL1        0.0161
@<TRIPOS>BOND
     1    20    21    1
     2    21     1    1
     3     1     2   ar
     4     1     6   ar
     5     2     3   ar
     6     3     4   ar
     7     4     5   ar
     8     4    18    1
     9     5     6   ar
    10     5    14    1
    11     6     7    1
    12     7     8    1
    13     8     9    1
    14     8    14    1
    15     9    10    1
    16    10    11    1
    17    10    12    1
    18    11    19    1
    19    12    13    2
    20    14    13    1
    21    14    15    1
    22    15    16    1
    23    16    17    1
    24    17    22    1
    25    17    18    1
    26    22    23    1
    27    23    24    1
    28    24    25    1
    29    25    26    1
    30    26    27    1
    31    27    28    2
    32    27    29   am
    33    29    31    1
    34    29    30    1
    35    31    32   ar
    36    31    40   ar
    37    32    33   ar
    38    33    34   ar
    39    34    35   ar
    40    34    39   ar
    41    35    36    1
    42    35    37   ar
    43    37    38   ar
    44    38    39   ar
    45    39    40   ar
#	Name:			CHEMBL3604337
#	Creating user name:	trannguyen
#	Creation time:		Tue Feb  8 17:54:08 2022


#	Modifying user name:	trannguyen
#	Modification time:	Tue Feb  8 17:54:08 2022

@<TRIPOS>MOLECULE
CHEMBL3604337
 46 51 0 0 0
SMALL
GASTEIGER

@<TRIPOS>ATOM
      1 C          -2.7682   56.3996   75.4976 C.3     1  UNL1        0.0019
      2 C          -4.0352   57.1670   75.9226 C.3     1  UNL1        0.0096
      3 C          -4.1422   58.5293   75.2170 C.3     1  UNL1        0.0851
      4 N          -6.3520   59.5822   75.2647 N.am    1  UNL1       -0.2965
      5 C          -5.1190   59.4979   75.8880 C.2     1  UNL1        0.2228
      6 O          -4.8429   60.1177   76.9069 O.2     1  UNL1       -0.2751
      7 H          -6.5618   58.9449   74.5054 H       1  UNL1        0.1499
      8 C          -7.4978   60.3420   75.8451 C.3     1  UNL1        0.1759
      9 C          -7.2968   61.8842   75.7700 C.2     1  UNL1        0.3355
     10 O          -7.1461   62.5192   74.7503 O.2     1  UNL1       -0.2483
     11 C          -8.3182   63.5219   77.1338 C.3     1  UNL1        0.2557
     12 O          -7.3770   62.4470   77.0216 O.3     1  UNL1       -0.4433
     13 C          -7.7688   59.8352   77.2834 C.3     1  UNL1        0.0590
     14 C          -8.1032   58.3745   77.4395 C.ar    1  UNL1       -0.0016
     15 C          -9.2694   57.7583   77.0253 C.ar    1  UNL1        0.0681
     16 N          -9.1979   56.4256   77.3327 N.ar    1  UNL1       -0.3523
     17 H          -9.9335   55.7506   77.1767 H       1  UNL1        0.1660
     18 C          -8.0096   56.1427   77.9612 C.ar    1  UNL1        0.0563
     19 C          -7.5329   54.9272   78.4747 C.ar    1  UNL1        0.0170
     20 C          -6.3063   54.9434   79.1424 C.ar    1  UNL1        0.0015
     21 C          -5.5810   56.1255   79.2712 C.ar    1  UNL1        0.0001
     22 C          -6.0584   57.3243   78.7208 C.ar    1  UNL1        0.0012
     23 C          -7.3041   57.3455   78.0568 C.ar    1  UNL1        0.0131
     24 C          -1.4896   56.8104   76.2556 C.3     1  UNL1        0.0173
     25 C          -1.6846   57.0146   77.7742 C.3     1  UNL1        0.0724
     26 N          -0.8514   58.0755   78.4264 N.3     1  UNL1       -0.2689
     27 C          -1.6787   58.6933   79.5025 C.3     1  UNL1        0.0732
     28 C          -1.2084   59.9382   80.2949 C.3     1  UNL1        0.0290
     29 C          -0.9511   61.2235   79.4731 C.3     1  UNL1        0.0780
     30 C          -2.0767   61.6158   78.5396 C.2     1  UNL1       -0.0213
     31 C          -2.6385   62.8346   78.4800 C.2     1  UNL1       -0.0015
     32 C          -2.2020   64.0024   79.3039 C.3     1  UNL1        0.1358
     33 O          -2.2281   65.1765   78.5020 O.3     1  UNL1       -0.3799
     34 C          -0.7900   63.8275   79.8206 C.3     1  UNL1        0.0779
     35 C          -0.5410   62.4218   80.3870 C.3     1  UNL1        0.1761
     36 O           0.8751   62.3491   80.6055 O.3     1  UNL1       -0.4757
     37 C           1.3569   61.7095   79.4869 C.ar    1  UNL1        0.1682
     38 C           2.6953   61.6441   79.1574 C.ar    1  UNL1        0.1721
     39 C           3.0599   60.6738   78.2213 C.ar    1  UNL1        0.0397
     40 C           2.0870   59.8311   77.6375 C.ar    1  UNL1        0.0001
     41 C           0.7210   59.9741   77.9384 C.ar    1  UNL1       -0.0066
     42 C           0.3742   60.9784   78.8265 C.ar    1  UNL1        0.0187
     43 C          -0.3155   59.0128   77.4179 C.3     1  UNL1        0.0989
     44 H          -3.1238   65.2700   78.1395 H       1  UNL1        0.2108
     45 O           3.6783   62.4095   79.7235 O.3     1  UNL1       -0.4684
     46 C           5.0012   61.8572   79.6470 C.3     1  UNL1        0.2526
@<TRIPOS>BOND
     1    11    12    1
     2    12     9    1
     3     9    10    2
     4     8    13    1
     5     8     4    1
     6     8     9    1
     7    13    14    1
     8    14    15   ar
     9    14    23   ar
    10    15    16   ar
    11    16    17    1
    12    16    18   ar
    13    18    19   ar
    14    18    23   ar
    15    19    20   ar
    16    20    21   ar
    17    21    22   ar
    18    22    23   ar
    19     4     5   am
    20     4     7    1
    21     5     6    2
    22     5     3    1
    23     3     2    1
    24     2     1    1
    25     1    24    1
    26    24    25    1
    27    25    26    1
    28    26    27    1
    29    26    43    1
    30    27    28    1
    31    29    28    1
    32    29    30    1
    33    29    35    1
    34    29    42    1
    35    30    31    2
    36    31    32    1
    37    32    34    1
    38    32    33    1
    39    33    44    1
    40    34    35    1
    41    35    36    1
    42    36    37    1
    43    37    38   ar
    44    37    42   ar
    45    38    45    1
    46    38    39   ar
    47    45    46    1
    48    39    40   ar
    49    40    41   ar
    50    41    42   ar
    51    41    43    1
#	Name:			CHEMBL3604344
#	Creating user name:	trannguyen
#	Creation time:		Tue Feb  8 17:54:08 2022


#	Modifying user name:	trannguyen
#	Modification time:	Tue Feb  8 17:54:08 2022

@<TRIPOS>MOLECULE
CHEMBL3604344
 33 37 0 0 0
SMALL
GASTEIGER

@<TRIPOS>ATOM
      1 C           4.5811   68.0550   62.5759 C.ar    1  UNL1        0.1721
      2 C           4.8077   69.3059   63.1554 C.ar    1  UNL1        0.0397
      3 C           4.4006   69.5742   64.4753 C.ar    1  UNL1        0.0001
      4 C           3.7545   68.5938   65.2478 C.ar    1  UNL1       -0.0066
      5 C           3.5015   67.3724   64.6461 C.ar    1  UNL1        0.0187
      6 C           3.9161   67.1148   63.3453 C.ar    1  UNL1        0.1682
      7 O           3.6119   65.8387   62.9477 O.3     1  UNL1       -0.4757
      8 C           2.5854   65.4180   63.8707 C.3     1  UNL1        0.1761
      9 C           2.6468   63.8955   63.9712 C.3     1  UNL1        0.0779
     10 C           3.9285   63.4170   64.6536 C.3     1  UNL1        0.1358
     11 O           5.0397   63.5005   63.7711 O.3     1  UNL1       -0.3799
     12 C           4.2594   64.2069   65.8781 C.2     1  UNL1       -0.0015
     13 C           3.7406   65.4144   66.1524 C.2     1  UNL1       -0.0213
     14 C           2.8128   66.1723   65.2167 C.3     1  UNL1        0.0780
     15 C           1.4492   66.5233   65.8396 C.3     1  UNL1        0.0290
     16 C           1.4531   67.4091   67.0939 C.3     1  UNL1        0.0732
     17 N           1.9303   68.8000   66.9089 N.3     1  UNL1       -0.2685
     18 C           3.3844   68.8365   66.6847 C.3     1  UNL1        0.0990
     19 H           5.0599   64.4139   63.4260 H       1  UNL1        0.2108
     20 C           4.0481   68.0674   60.2710 C.3     1  UNL1        0.2526
     21 O           5.0275   67.8950   61.2935 O.3     1  UNL1       -0.4684
     22 C           1.5228   69.5975   68.0942 C.3     1  UNL1        0.0800
     23 C           2.5898   69.7494   69.1941 C.3     1  UNL1        0.0779
     24 C           3.4404   68.5051   69.4109 C.3     1  UNL1        0.0096
     25 C           3.4594   70.9637   68.8839 C.2     1  UNL1        0.1740
     26 O           2.9765   72.0503   68.5083 O.2     1  UNL1       -0.2913
     27 C           4.9298   70.8568   69.1081 C.ar    1  UNL1        0.0347
     28 C           5.8022   71.0745   68.0313 C.ar    1  UNL1        0.0025
     29 C           7.1880   70.9921   68.2322 C.ar    1  UNL1       -0.0042
     30 C           7.7059   70.7068   69.5007 C.ar    1  UNL1       -0.0218
     31 C           9.1840   70.6101   69.7372 C.3     1  UNL1        0.0310
     32 C           6.8270   70.4985   70.5666 C.ar    1  UNL1       -0.0042
     33 C           5.4494   70.5656   70.3646 C.ar    1  UNL1        0.0025
@<TRIPOS>BOND
     1    20    21    1
     2    21     1    1
     3     1     2   ar
     4     1     6   ar
     5     2     3   ar
     6     3     4   ar
     7     4     5   ar
     8     4    18    1
     9     5     6   ar
    10     5    14    1
    11     6     7    1
    12     7     8    1
    13     8     9    1
    14     8    14    1
    15     9    10    1
    16    10    11    1
    17    10    12    1
    18    11    19    1
    19    12    13    2
    20    14    13    1
    21    14    15    1
    22    15    16    1
    23    16    17    1
    24    17    22    1
    25    17    18    1
    26    22    23    1
    27    23    24    1
    28    23    25    1
    29    25    26    2
    30    25    27    1
    31    27    28   ar
    32    27    33   ar
    33    28    29   ar
    34    29    30   ar
    35    30    31    1
    36    30    32   ar
    37    32    33   ar
#	Name:			CHEMBL3604348
#	Creating user name:	trannguyen
#	Creation time:		Tue Feb  8 17:54:08 2022


#	Modifying user name:	trannguyen
#	Modification time:	Tue Feb  8 17:54:08 2022

@<TRIPOS>MOLECULE
CHEMBL3604348
 37 42 0 0 0
SMALL
GASTEIGER

@<TRIPOS>ATOM
      1 C           2.3051   68.2810   62.5699 C.ar    1  UNL1        0.1721
      2 C           2.4515   69.5808   63.0575 C.ar    1  UNL1        0.0397
      3 C           2.6985   69.8230   64.4245 C.ar    1  UNL1        0.0001
      4 C           2.7914   68.7697   65.3520 C.ar    1  UNL1       -0.0066
      5 C           2.6184   67.4837   64.8499 C.ar    1  UNL1        0.0187
      6 C           2.3649   67.2556   63.4950 C.ar    1  UNL1        0.1682
      7 O           2.1897   65.9246   63.2067 O.3     1  UNL1       -0.4757
      8 C           1.9467   65.3203   64.4967 C.3     1  UNL1        0.1761
      9 C           2.3884   63.8591   64.4417 C.3     1  UNL1        0.0779
     10 C           3.9016   63.7244   64.2689 C.3     1  UNL1        0.1358
     11 O           4.2793   63.9856   62.9234 O.3     1  UNL1       -0.3799
     12 C           4.6727   64.6654   65.1429 C.2     1  UNL1       -0.0015
     13 C           4.1414   65.7332   65.7397 C.2     1  UNL1       -0.0213
     14 C           2.6922   66.1735   65.5655 C.3     1  UNL1        0.0780
     15 C           1.8961   66.1482   66.8704 C.3     1  UNL1        0.0290
     16 C           2.4164   67.0400   67.9934 C.3     1  UNL1        0.0732
     17 N           2.1937   68.4857   67.7931 N.3     1  UNL1       -0.2686
     18 C           3.1484   69.0354   66.7968 C.3     1  UNL1        0.0990
     19 H           3.9002   64.8556   62.6921 H       1  UNL1        0.2108
     20 C           3.0700   68.7048   60.3711 C.3     1  UNL1        0.2526
     21 O           2.0692   68.1632   61.2300 O.3     1  UNL1       -0.4684
     22 C           2.3983   69.2003   69.0830 C.3     1  UNL1        0.0767
     23 C           3.0741   70.6019   68.9955 C.3     1  UNL1        0.0384
     24 C           2.8428   71.3620   70.3119 C.3     1  UNL1        0.0061
     25 C           4.5521   70.5529   68.6443 C.ar    1  UNL1       -0.0181
     26 C           5.5482   70.5852   69.6281 C.ar    1  UNL1       -0.0040
     27 C           6.8975   70.6335   69.2733 C.ar    1  UNL1        0.0028
     28 C           7.2668   70.7037   67.9301 C.ar    1  UNL1        0.0375
     29 C           6.2877   70.6955   66.9377 C.ar    1  UNL1        0.1450
     30 C           4.9433   70.5461   67.2958 C.ar    1  UNL1        0.0333
     31 O           6.7304   70.8125   65.6373 O.3     1  UNL1       -0.4535
     32 C           6.3899   69.8457   64.7142 C.ar    1  UNL1        0.1453
     33 C           6.1070   70.2988   63.4244 C.ar    1  UNL1        0.0375
     34 C           5.7822   69.3880   62.4166 C.ar    1  UNL1        0.0031
     35 C           5.7416   68.0221   62.6958 C.ar    1  UNL1        0.0002
     36 C           5.9847   67.5689   63.9908 C.ar    1  UNL1        0.0031
     37 C           6.2748   68.4820   65.0056 C.ar    1  UNL1        0.0375
@<TRIPOS>BOND
     1    20    21    1
     2    21     1    1
     3     1     2   ar
     4     1     6   ar
     5     2     3   ar
     6     3     4   ar
     7     4     5   ar
     8     4    18    1
     9     5     6   ar
    10     5    14    1
    11     6     7    1
    12     7     8    1
    13     8     9    1
    14     8    14    1
    15     9    10    1
    16    10    11    1
    17    10    12    1
    18    11    19    1
    19    12    13    2
    20    14    13    1
    21    14    15    1
    22    15    16    1
    23    16    17    1
    24    17    22    1
    25    17    18    1
    26    22    23    1
    27    23    24    1
    28    23    25    1
    29    25    26   ar
    30    25    30   ar
    31    26    27   ar
    32    27    28   ar
    33    28    29   ar
    34    29    31    1
    35    29    30   ar
    36    31    32    1
    37    32    33   ar
    38    32    37   ar
    39    33    34   ar
    40    34    35   ar
    41    35    36   ar
    42    36    37   ar
#	Name:			CHEMBL3604349
#	Creating user name:	trannguyen
#	Creation time:		Tue Feb  8 17:54:08 2022


#	Modifying user name:	trannguyen
#	Modification time:	Tue Feb  8 17:54:08 2022

@<TRIPOS>MOLECULE
CHEMBL3604349
 29 33 0 0 0
SMALL
GASTEIGER

@<TRIPOS>ATOM
      1 C           1.7968   59.2932   75.3896 C.ar    1  UNL1        0.1721
      2 C           2.2923   60.4931   75.9089 C.ar    1  UNL1        0.0397
      3 C           1.6186   61.1811   76.9365 C.ar    1  UNL1        0.0001
      4 C           0.4187   60.6905   77.4740 C.ar    1  UNL1       -0.0066
      5 C          -0.0828   59.5204   76.9161 C.ar    1  UNL1        0.0187
      6 C           0.5924   58.8399   75.8994 C.ar    1  UNL1        0.1682
      7 O          -0.0616   57.6962   75.5107 O.3     1  UNL1       -0.4757
      8 C          -1.4096   57.8776   76.0095 C.3     1  UNL1        0.1761
      9 C          -2.0297   56.5023   76.2680 C.3     1  UNL1        0.0779
     10 C          -1.3704   55.7772   77.4413 C.3     1  UNL1        0.1358
     11 O          -0.1052   55.2505   77.0677 O.3     1  UNL1       -0.3799
     12 C          -1.1574   56.6682   78.6219 C.2     1  UNL1       -0.0015
     13 C          -1.1722   58.0035   78.5570 C.2     1  UNL1       -0.0213
     14 C          -1.3419   58.7958   77.2696 C.3     1  UNL1        0.0780
     15 C          -2.5479   59.7500   77.2837 C.3     1  UNL1        0.0290
     16 C          -2.6136   60.7673   78.4336 C.3     1  UNL1        0.0734
     17 N          -1.6083   61.8526   78.4237 N.3     1  UNL1       -0.2652
     18 C          -0.2374   61.3536   78.6617 C.3     1  UNL1        0.0992
     19 H           0.4199   55.9969   76.7201 H       1  UNL1        0.2108
     20 C           3.2868   59.5980   73.5614 C.3     1  UNL1        0.2526
     21 O           2.5711   58.7199   74.4224 O.3     1  UNL1       -0.4684
     22 C          -1.9247   62.8406   79.4918 C.3     1  UNL1        0.0994
     23 C          -3.0185   63.8314   79.1366 C.ar    1  UNL1       -0.0061
     24 C          -4.2133   63.8778   79.8708 C.ar    1  UNL1       -0.0024
     25 C          -5.1971   64.8246   79.5686 C.ar    1  UNL1        0.0064
     26 C          -4.9983   65.7191   78.5190 C.ar    1  UNL1        0.0345
     27 BR         -6.3086   67.0271   78.1347 Br      1  UNL1       -0.0490
     28 C          -3.8351   65.6629   77.7553 C.ar    1  UNL1        0.0064
     29 C          -2.8490   64.7219   78.0635 C.ar    1  UNL1       -0.0024
@<TRIPOS>BOND
     1    20    21    1
     2    21     1    1
     3     1     2   ar
     4     1     6   ar
     5     2     3   ar
     6     3     4   ar
     7     4     5   ar
     8     4    18    1
     9     5     6   ar
    10     5    14    1
    11     6     7    1
    12     7     8    1
    13     8     9    1
    14     8    14    1
    15     9    10    1
    16    10    11    1
    17    10    12    1
    18    11    19    1
    19    12    13    2
    20    14    13    1
    21    14    15    1
    22    15    16    1
    23    16    17    1
    24    17    22    1
    25    17    18    1
    26    22    23    1
    27    23    24   ar
    28    23    29   ar
    29    24    25   ar
    30    25    26   ar
    31    26    27    1
    32    26    28   ar
    33    28    29   ar
#	Name:			CHEMBL3633524
#	Creating user name:	trannguyen
#	Creation time:		Tue Feb  8 17:54:08 2022


#	Modifying user name:	trannguyen
#	Modification time:	Tue Feb  8 17:54:08 2022

@<TRIPOS>MOLECULE
CHEMBL3633524
 26 29 0 0 0
SMALL
GASTEIGER

@<TRIPOS>ATOM
      1 C          -2.8614   58.1412   76.0752 C.2     1  UNL1        0.0453
      2 C          -1.9413   57.4385   75.4011 C.2     1  UNL1        0.0046
      3 C          -1.0155   56.5361   76.0942 C.2     1  UNL1        0.0144
      4 C           0.0167   57.0453   76.8793 C.2     1  UNL1       -0.0016
      5 C           0.8453   56.1719   77.5762 C.2     1  UNL1       -0.0047
      6 C           0.6301   54.8027   77.4787 C.3     1  UNL1        0.1177
      7 N          -0.3606   54.3108   76.7008 N.pl3   1  UNL1       -0.2986
      8 C          -1.1832   55.1499   76.0243 C.2     1  UNL1        0.0618
      9 C          -0.6548   52.8573   76.7268 C.3     1  UNL1        0.1180
     10 C          -2.0909   52.6027   77.1390 C.ar    1  UNL1       -0.0024
     11 C          -3.0145   52.0810   76.2173 C.ar    1  UNL1       -0.0026
     12 C          -4.3409   51.8460   76.5889 C.ar    1  UNL1       -0.0003
     13 C          -4.7643   52.1290   77.8845 C.ar    1  UNL1       -0.0000
     14 C          -3.8613   52.6460   78.8107 C.ar    1  UNL1       -0.0003
     15 C          -2.5328   52.8840   78.4424 C.ar    1  UNL1       -0.0026
     16 O          -3.3762   59.8177   74.4653 O.2     1  UNL1       -0.2833
     17 C          -3.7882   59.1020   75.3740 C.2     1  UNL1        0.2299
     18 C          -5.1562   59.1149   75.8564 C.ar    1  UNL1        0.1840
     19 C          -5.8601   58.2139   76.6429 C.ar    1  UNL1        0.0438
     20 C          -7.1870   58.7121   76.7578 C.ar    1  UNL1        0.0377
     21 C          -8.3746   58.2934   77.3830 C.ar    1  UNL1        0.0031
     22 C          -9.5253   59.0851   77.2398 C.ar    1  UNL1        0.0002
     23 C          -9.5015   60.2683   76.4959 C.ar    1  UNL1        0.0031
     24 C          -8.3293   60.7042   75.8733 C.ar    1  UNL1        0.0375
     25 C          -7.2075   59.8953   76.0327 C.ar    1  UNL1        0.1454
     26 O          -5.9859   60.1428   75.4972 O.2     1  UNL1       -0.4503
@<TRIPOS>BOND
     1    16    17    2
     2    17     1    1
     3    17    18    1
     4     1     2    2
     5     2     3    1
     6     3     4    1
     7     3     8    2
     8     4     5    2
     9     5     6    1
    10     6     7    1
    11     7     9    1
    12     7     8    1
    13     9    10    1
    14    10    11   ar
    15    10    15   ar
    16    11    12   ar
    17    12    13   ar
    18    13    14   ar
    19    14    15   ar
    20    18    19   ar
    21    18    26   ar
    22    19    20   ar
    23    20    21   ar
    24    20    25   ar
    25    21    22   ar
    26    22    23   ar
    27    23    24   ar
    28    24    25   ar
    29    25    26   ar
#	Name:			CHEMBL3633525
#	Creating user name:	trannguyen
#	Creation time:		Tue Feb  8 17:54:08 2022


#	Modifying user name:	trannguyen
#	Modification time:	Tue Feb  8 17:54:08 2022

@<TRIPOS>MOLECULE
CHEMBL3633525
 27 30 0 0 0
SMALL
GASTEIGER

@<TRIPOS>ATOM
      1 C           4.8827   68.8950   64.1484 C.2     1  UNL1        0.0144
      2 C           5.2137   69.7232   63.0782 C.2     1  UNL1       -0.0016
      3 C           5.1496   69.2292   61.7781 C.2     1  UNL1       -0.0047
      4 C           4.7659   67.9094   61.5637 C.3     1  UNL1        0.1177
      5 N           4.5088   67.0868   62.6058 N.pl3   1  UNL1       -0.2986
      6 C           4.5141   67.5756   63.8679 C.2     1  UNL1        0.0618
      7 C           3.6393   69.4704   66.2098 C.2     1  UNL1        0.0453
      8 C           4.7862   69.4448   65.5113 C.2     1  UNL1        0.0046
      9 O           2.4457   70.3874   68.0402 O.2     1  UNL1       -0.2833
     10 C           3.5338   70.1249   67.5603 C.2     1  UNL1        0.2299
     11 C           4.7956   70.4085   68.2232 C.ar    1  UNL1        0.1840
     12 C           5.9428   71.0394   67.7701 C.ar    1  UNL1        0.0438
     13 C           6.8686   71.0533   68.8494 C.ar    1  UNL1        0.0377
     14 C           8.1743   71.5328   69.0561 C.ar    1  UNL1        0.0031
     15 C           8.7703   71.3428   70.3130 C.ar    1  UNL1        0.0002
     16 C           8.0892   70.6900   71.3442 C.ar    1  UNL1        0.0031
     17 C           6.7901   70.2091   71.1587 C.ar    1  UNL1        0.0375
     18 C           6.2265   70.4159   69.9018 C.ar    1  UNL1        0.1454
     19 O           4.9799   70.0287   69.5297 O.2     1  UNL1       -0.4503
     20 C           4.0418   65.6976   62.3589 C.3     1  UNL1        0.1185
     21 C           4.0135   64.8724   63.6378 C.ar    1  UNL1        0.0038
     22 C           4.9146   63.7940   63.7727 C.ar    1  UNL1       -0.0021
     23 C           4.9260   62.9886   64.9187 C.ar    1  UNL1       -0.0002
     24 C           4.0412   63.2411   65.9598 C.ar    1  UNL1        0.0005
     25 C           3.1458   64.3009   65.8547 C.ar    1  UNL1        0.0064
     26 C           3.1297   65.1110   64.7080 C.ar    1  UNL1        0.0322
     27 BR          1.8519   66.5153   64.7081 Br      1  UNL1       -0.0493
@<TRIPOS>BOND
     1     9    10    2
     2    10     7    1
     3    10    11    1
     4     7     8    2
     5     8     1    1
     6     1     2    1
     7     1     6    2
     8     2     3    2
     9     3     4    1
    10     4     5    1
    11     5    20    1
    12     5     6    1
    13    20    21    1
    14    21    22   ar
    15    21    26   ar
    16    22    23   ar
    17    23    24   ar
    18    24    25   ar
    19    25    26   ar
    20    26    27    1
    21    11    12   ar
    22    11    19   ar
    23    12    13   ar
    24    13    14   ar
    25    13    18   ar
    26    14    15   ar
    27    15    16   ar
    28    16    17   ar
    29    17    18   ar
    30    18    19   ar
#	Name:			CHEMBL3633857
#	Creating user name:	trannguyen
#	Creation time:		Tue Feb  8 17:54:08 2022


#	Modifying user name:	trannguyen
#	Modification time:	Tue Feb  8 17:54:08 2022

@<TRIPOS>MOLECULE
CHEMBL3633857
 27 30 0 0 0
SMALL
GASTEIGER

@<TRIPOS>ATOM
      1 C          -2.3894   58.6149   76.3952 C.2     1  UNL1        0.0144
      2 C          -3.1358   58.4793   75.2245 C.2     1  UNL1       -0.0016
      3 C          -4.4686   58.8763   75.2063 C.2     1  UNL1       -0.0047
      4 C          -5.0368   59.4200   76.3528 C.3     1  UNL1        0.1177
      5 N          -4.2938   59.6104   77.4687 N.pl3   1  UNL1       -0.2986
      6 C          -2.9964   59.2161   77.5026 C.2     1  UNL1        0.0618
      7 C          -0.0278   58.8602   77.1417 C.2     1  UNL1        0.0453
      8 C          -0.9969   58.1683   76.5165 C.2     1  UNL1        0.0046
      9 O           1.6762   57.4048   76.4164 O.2     1  UNL1       -0.2833
     10 C           1.3982   58.3875   77.1141 C.2     1  UNL1        0.2299
     11 C           2.3609   59.1571   77.8732 C.ar    1  UNL1        0.1840
     12 C           2.5772   60.5192   77.9945 C.ar    1  UNL1        0.0438
     13 C           3.6709   60.6951   78.8872 C.ar    1  UNL1        0.0377
     14 C           4.3920   61.7854   79.4083 C.ar    1  UNL1        0.0031
     15 C           5.4411   61.5326   80.3083 C.ar    1  UNL1        0.0002
     16 C           5.7631   60.2284   80.6947 C.ar    1  UNL1        0.0031
     17 C           5.0612   59.1335   80.1831 C.ar    1  UNL1        0.0375
     18 C           4.0378   59.4170   79.2823 C.ar    1  UNL1        0.1454
     19 O           3.2588   58.4870   78.6701 O.2     1  UNL1       -0.4503
     20 C          -4.9197   60.1967   78.6854 C.3     1  UNL1        0.1180
     21 C          -5.0474   61.7012   78.6147 C.ar    1  UNL1       -0.0024
     22 C          -6.2765   62.2901   78.2674 C.ar    1  UNL1       -0.0021
     23 C          -6.4016   63.6796   78.1667 C.ar    1  UNL1        0.0064
     24 C          -5.3022   64.4940   78.4204 C.ar    1  UNL1        0.0345
     25 BR         -5.4659   66.3707   78.2734 Br      1  UNL1       -0.0490
     26 C          -4.0763   63.9295   78.7642 C.ar    1  UNL1        0.0064
     27 C          -3.9444   62.5384   78.8497 C.ar    1  UNL1       -0.0021
@<TRIPOS>BOND
     1     9    10    2
     2    10     7    1
     3    10    11    1
     4     7     8    2
     5     8     1    1
     6     1     2    1
     7     1     6    2
     8     2     3    2
     9     3     4    1
    10     4     5    1
    11     5    20    1
    12     5     6    1
    13    20    21    1
    14    21    22   ar
    15    21    27   ar
    16    22    23   ar
    17    23    24   ar
    18    24    25    1
    19    24    26   ar
    20    26    27   ar
    21    11    12   ar
    22    11    19   ar
    23    12    13   ar
    24    13    14   ar
    25    13    18   ar
    26    14    15   ar
    27    15    16   ar
    28    16    17   ar
    29    17    18   ar
    30    18    19   ar
#	Name:			CHEMBL3633863
#	Creating user name:	trannguyen
#	Creation time:		Tue Feb  8 17:54:08 2022


#	Modifying user name:	trannguyen
#	Modification time:	Tue Feb  8 17:54:08 2022

@<TRIPOS>MOLECULE
CHEMBL3633863
 29 32 0 0 0
SMALL
GASTEIGER

@<TRIPOS>ATOM
      1 C          -0.4654   61.3262   77.9106 C.2     1  UNL1        0.0144
      2 C          -0.2883   61.9008   76.6534 C.2     1  UNL1       -0.0016
      3 C          -0.7761   63.1787   76.4077 C.2     1  UNL1       -0.0047
      4 C          -1.4518   63.8580   77.4162 C.3     1  UNL1        0.1177
      5 N          -1.6483   63.2828   78.6254 N.pl3   1  UNL1       -0.2986
      6 C          -1.1828   62.0342   78.8750 C.2     1  UNL1        0.0618
      7 C           0.9891   59.4114   77.3860 C.2     1  UNL1        0.0453
      8 C           0.0874   60.0017   78.1871 C.2     1  UNL1        0.0046
      9 O           2.7064   58.1563   78.4246 O.2     1  UNL1       -0.2833
     10 C           1.6347   58.1289   77.8201 C.2     1  UNL1        0.2299
     11 C           0.9942   56.9014   77.3937 C.ar    1  UNL1        0.1840
     12 C          -0.1493   56.6818   76.6502 C.ar    1  UNL1        0.0439
     13 C          -0.3636   55.2777   76.6189 C.ar    1  UNL1        0.0382
     14 C          -1.3452   54.4129   76.1067 C.ar    1  UNL1        0.0098
     15 C          -1.1816   53.0327   76.3007 C.ar    1  UNL1        0.0348
     16 BR         -2.5036   51.8460   75.6457 Br      1  UNL1       -0.0490
     17 C          -0.0716   52.5131   76.9725 C.ar    1  UNL1        0.0098
     18 C           0.9108   53.3605   77.4912 C.ar    1  UNL1        0.0380
     19 C           0.7171   54.7236   77.2983 C.ar    1  UNL1        0.1455
     20 O           1.5291   55.7019   77.7698 O.2     1  UNL1       -0.4503
     21 C          -2.5573   63.9359   79.6036 C.3     1  UNL1        0.1180
     22 C          -3.9646   64.1547   79.0652 C.ar    1  UNL1       -0.0015
     23 C          -4.8117   63.0469   78.8707 C.ar    1  UNL1       -0.0017
     24 C          -6.1358   63.2150   78.4419 C.ar    1  UNL1        0.0120
     25 C          -6.6469   64.4935   78.2125 C.ar    1  UNL1        0.0682
     26 CL         -8.2882   64.6319   77.6948 Cl      1  UNL1       -0.0814
     27 C          -5.8245   65.6046   78.4110 C.ar    1  UNL1        0.0679
     28 CL         -6.3760   67.2225   78.1580 Cl      1  UNL1       -0.0814
     29 C          -4.4972   65.4338   78.8365 C.ar    1  UNL1        0.0096
@<TRIPOS>BOND
     1     9    10    2
     2    10     7    1
     3    10    11    1
     4     7     8    2
     5     8     1    1
     6     1     2    1
     7     1     6    2
     8     2     3    2
     9     3     4    1
    10     4     5    1
    11     5    21    1
    12     5     6    1
    13    21    22    1
    14    22    23   ar
    15    22    29   ar
    16    23    24   ar
    17    24    25   ar
    18    25    26    1
    19    25    27   ar
    20    27    28    1
    21    27    29   ar
    22    11    12   ar
    23    11    20   ar
    24    12    13   ar
    25    13    14   ar
    26    13    19   ar
    27    14    15   ar
    28    15    16    1
    29    15    17   ar
    30    17    18   ar
    31    18    19   ar
    32    19    20   ar
#	Name:			CHEMBL3633865
#	Creating user name:	trannguyen
#	Creation time:		Tue Feb  8 17:54:08 2022


#	Modifying user name:	trannguyen
#	Modification time:	Tue Feb  8 17:54:08 2022

@<TRIPOS>MOLECULE
CHEMBL3633865
 29 32 0 0 0
SMALL
GASTEIGER

@<TRIPOS>ATOM
      1 C          -3.8471   58.4389   75.8563 C.2     1  UNL1        0.0453
      2 C          -2.6284   58.9414   76.1240 C.2     1  UNL1        0.0046
      3 C          -1.5388   58.1029   76.6324 C.2     1  UNL1        0.0144
      4 C          -0.2153   58.3809   76.2895 C.2     1  UNL1       -0.0016
      5 C           0.7951   57.5309   76.7212 C.2     1  UNL1       -0.0047
      6 C           0.4657   56.4045   77.4613 C.3     1  UNL1        0.1177
      7 N          -0.8180   56.1277   77.7806 N.pl3   1  UNL1       -0.2986
      8 C          -1.8111   56.9773   77.4198 C.2     1  UNL1        0.0618
      9 C          -1.1388   54.8262   78.4513 C.3     1  UNL1        0.1185
     10 C          -1.6118   53.7649   77.4701 C.ar    1  UNL1        0.0038
     11 C          -2.9627   53.6826   77.0791 C.ar    1  UNL1       -0.0021
     12 C          -3.4103   52.7201   76.1742 C.ar    1  UNL1       -0.0002
     13 C          -2.5081   51.8462   75.5866 C.ar    1  UNL1        0.0005
     14 C          -1.1643   51.9017   75.9461 C.ar    1  UNL1        0.0064
     15 C          -0.7267   52.8226   76.9105 C.ar    1  UNL1        0.0322
     16 BR          1.0727   52.6527   77.4964 Br      1  UNL1       -0.0493
     17 C          -4.9395   59.3019   75.2999 C.2     1  UNL1        0.2299
     18 O          -4.6884   60.0772   74.3657 O.2     1  UNL1       -0.2833
     19 C          -8.6960   56.9918   77.3324 C.ar    1  UNL1        0.1730
     20 C          -9.9858   57.3327   77.7581 C.ar    1  UNL1        0.0401
     21 C         -10.4437   58.6517   77.6982 C.ar    1  UNL1        0.0033
     22 C          -9.6271   59.6768   77.1976 C.ar    1  UNL1        0.0033
     23 C          -8.3381   59.3538   76.7322 C.ar    1  UNL1        0.0407
     24 C          -7.2495   60.0780   76.1691 C.ar    1  UNL1        0.0440
     25 C          -6.2560   59.1593   75.8807 C.ar    1  UNL1        0.1842
     26 O          -6.6735   57.9131   76.2525 O.2     1  UNL1       -0.4472
     27 C          -7.9204   58.0280   76.7958 C.ar    1  UNL1        0.1791
     28 C          -7.4884   55.3585   78.5259 C.3     1  UNL1        0.2526
     29 O          -8.3458   55.6579   77.4283 O.3     1  UNL1       -0.4684
@<TRIPOS>BOND
     1    28    29    1
     2    29    19    1
     3    19    20   ar
     4    19    27   ar
     5    20    21   ar
     6    21    22   ar
     7    22    23   ar
     8    23    24   ar
     9    23    27   ar
    10    24    25   ar
    11    25    17    1
    12    25    26   ar
    13    17    18    2
    14    17     1    1
    15     1     2    2
    16     2     3    1
    17     3     4    1
    18     3     8    2
    19     4     5    2
    20     5     6    1
    21     6     7    1
    22     7     9    1
    23     7     8    1
    24     9    10    1
    25    10    11   ar
    26    10    15   ar
    27    11    12   ar
    28    12    13   ar
    29    13    14   ar
    30    14    15   ar
    31    15    16    1
    32    26    27   ar
#	Name:			CHEMBL3633868
#	Creating user name:	trannguyen
#	Creation time:		Tue Feb  8 17:54:08 2022


#	Modifying user name:	trannguyen
#	Modification time:	Tue Feb  8 17:54:08 2022

@<TRIPOS>MOLECULE
CHEMBL3633868
 30 33 0 0 0
SMALL
GASTEIGER

@<TRIPOS>ATOM
      1 C          -3.8659   58.6084   75.4063 C.2     1  UNL1        0.0453
      2 C          -2.9434   59.0237   76.3188 C.2     1  UNL1        0.0046
      3 C          -1.6425   58.3326   76.5599 C.2     1  UNL1        0.0144
      4 C          -0.5528   59.0803   77.0059 C.2     1  UNL1       -0.0016
      5 C           0.6543   58.4501   77.3030 C.2     1  UNL1       -0.0047
      6 C           0.7538   57.0696   77.1704 C.3     1  UNL1        0.1177
      7 N          -0.2907   56.3524   76.6974 N.pl3   1  UNL1       -0.2986
      8 C          -1.4671   56.9614   76.4085 C.2     1  UNL1        0.0618
      9 C          -0.1709   54.8859   76.4734 C.3     1  UNL1        0.1189
     10 C          -1.4075   54.0908   76.8746 C.ar    1  UNL1        0.0090
     11 C          -2.0862   53.3925   75.8498 C.ar    1  UNL1       -0.0017
     12 C          -3.2757   52.7044   76.1047 C.ar    1  UNL1        0.0007
     13 C          -3.8245   52.7150   77.3821 C.ar    1  UNL1        0.0122
     14 C          -3.1396   53.3332   78.4256 C.ar    1  UNL1        0.0679
     15 CL         -3.8918   53.3105   79.9854 Cl      1  UNL1       -0.0814
     16 C          -1.9046   53.9662   78.1920 C.ar    1  UNL1        0.0658
     17 CL         -0.9992   54.5226   79.5621 Cl      1  UNL1       -0.0816
     18 C          -5.1455   59.3891   75.2633 C.2     1  UNL1        0.2299
     19 O          -5.2988   60.1529   74.3289 O.2     1  UNL1       -0.2833
     20 C          -8.2020   56.7327   78.0349 C.ar    1  UNL1        0.1730
     21 C          -9.1821   57.0184   78.9938 C.ar    1  UNL1        0.0401
     22 C          -9.4723   58.3304   79.3672 C.ar    1  UNL1        0.0033
     23 C          -8.7891   59.4081   78.7877 C.ar    1  UNL1        0.0033
     24 C          -7.8037   59.1487   77.8159 C.ar    1  UNL1        0.0407
     25 C          -6.9120   59.9499   77.0467 C.ar    1  UNL1        0.0440
     26 C          -6.1869   59.1042   76.2224 C.ar    1  UNL1        0.1842
     27 O          -6.6052   57.8108   76.4635 O.2     1  UNL1       -0.4472
     28 C          -7.5475   57.8303   77.4498 C.ar    1  UNL1        0.1791
     29 C          -7.0281   54.7447   78.5055 C.3     1  UNL1        0.2526
     30 O          -8.0387   55.3917   77.7360 O.3     1  UNL1       -0.4684
@<TRIPOS>BOND
     1    29    30    1
     2    30    20    1
     3    20    21   ar
     4    20    28   ar
     5    21    22   ar
     6    22    23   ar
     7    23    24   ar
     8    24    25   ar
     9    24    28   ar
    10    25    26   ar
    11    26    18    1
    12    26    27   ar
    13    18    19    2
    14    18     1    1
    15     1     2    2
    16     2     3    1
    17     3     4    1
    18     3     8    2
    19     4     5    2
    20     5     6    1
    21     6     7    1
    22     7     9    1
    23     7     8    1
    24     9    10    1
    25    10    11   ar
    26    10    16   ar
    27    11    12   ar
    28    12    13   ar
    29    13    14   ar
    30    14    15    1
    31    14    16   ar
    32    16    17    1
    33    27    28   ar
#	Name:			CHEMBL3633869
#	Creating user name:	trannguyen
#	Creation time:		Tue Feb  8 17:54:08 2022


#	Modifying user name:	trannguyen
#	Modification time:	Tue Feb  8 17:54:08 2022

@<TRIPOS>MOLECULE
CHEMBL3633869
 26 29 0 0 0
SMALL
GASTEIGER

@<TRIPOS>ATOM
      1 C          -0.1080   57.6807   77.5872 C.2     1  UNL1        0.0452
      2 C          -0.8072   58.0034   76.4865 C.2     1  UNL1        0.0032
      3 C          -2.2688   58.0183   76.5125 C.2     1  UNL1       -0.0012
      4 C          -2.9523   57.6218   77.6585 C.2     1  UNL1       -0.0047
      5 C          -4.3353   57.7589   77.7122 C.3     1  UNL1        0.1177
      6 N          -5.0223   58.2611   76.6607 N.pl3   1  UNL1       -0.2986
      7 C          -4.3721   58.6485   75.5389 C.2     1  UNL1        0.0618
      8 C          -2.9916   58.5210   75.4341 C.2     1  UNL1        0.0155
      9 C          -6.4723   58.5461   76.8083 C.3     1  UNL1        0.1180
     10 C          -6.7673   60.0340   76.8478 C.ar    1  UNL1       -0.0024
     11 C          -6.3078   60.8022   77.9328 C.ar    1  UNL1       -0.0026
     12 C          -6.5415   62.1803   77.9858 C.ar    1  UNL1       -0.0003
     13 C          -7.2275   62.8133   76.9532 C.ar    1  UNL1       -0.0000
     14 C          -7.6656   62.0735   75.8596 C.ar    1  UNL1       -0.0003
     15 C          -7.4287   60.6979   75.8015 C.ar    1  UNL1       -0.0026
     16 O           1.9771   56.6824   77.0842 O.2     1  UNL1       -0.2833
     17 C           1.3886   57.6517   77.5761 C.2     1  UNL1        0.2299
     18 C           2.0860   58.7852   78.1479 C.ar    1  UNL1        0.1840
     19 C           1.7320   60.1198   78.2562 C.ar    1  UNL1        0.0438
     20 C           2.7982   60.7819   78.9241 C.ar    1  UNL1        0.0377
     21 C           3.0693   62.0964   79.3451 C.ar    1  UNL1        0.0031
     22 C           4.2782   62.3537   80.0112 C.ar    1  UNL1        0.0002
     23 C           5.2029   61.3327   80.2496 C.ar    1  UNL1        0.0031
     24 C           4.9547   60.0222   79.8312 C.ar    1  UNL1        0.0375
     25 C           3.7449   59.7993   79.1799 C.ar    1  UNL1        0.1454
     26 O           3.3196   58.5981   78.7115 O.2     1  UNL1       -0.4503
@<TRIPOS>BOND
     1    16    17    2
     2    17     1    1
     3    17    18    1
     4     1     2    2
     5     2     3    1
     6     3     4    2
     7     3     8    1
     8     4     5    1
     9     5     6    1
    10     6     9    1
    11     6     7    1
    12     9    10    1
    13    10    11   ar
    14    10    15   ar
    15    11    12   ar
    16    12    13   ar
    17    13    14   ar
    18    14    15   ar
    19     7     8    2
    20    18    19   ar
    21    18    26   ar
    22    19    20   ar
    23    20    21   ar
    24    20    25   ar
    25    21    22   ar
    26    22    23   ar
    27    23    24   ar
    28    24    25   ar
    29    25    26   ar
#	Name:			CHEMBL3633870
#	Creating user name:	trannguyen
#	Creation time:		Tue Feb  8 17:54:08 2022


#	Modifying user name:	trannguyen
#	Modification time:	Tue Feb  8 17:54:08 2022

@<TRIPOS>MOLECULE
CHEMBL3633870
 27 30 0 0 0
SMALL
GASTEIGER

@<TRIPOS>ATOM
      1 C          -2.1839   58.5828   76.5901 C.2     1  UNL1       -0.0012
      2 C          -2.7709   59.4241   77.5314 C.2     1  UNL1       -0.0047
      3 C          -4.1576   59.4990   77.6128 C.3     1  UNL1        0.1177
      4 N          -4.9415   58.7838   76.7714 N.pl3   1  UNL1       -0.2986
      5 C          -4.3879   57.9474   75.8635 C.2     1  UNL1        0.0618
      6 C          -3.0051   57.8424   75.7438 C.2     1  UNL1        0.0155
      7 C          -0.0254   58.0871   77.6307 C.2     1  UNL1        0.0452
      8 C          -0.7309   58.4213   76.5372 C.2     1  UNL1        0.0032
      9 O           1.9758   57.0099   76.9658 O.2     1  UNL1       -0.2833
     10 C           1.4639   57.9557   77.5771 C.2     1  UNL1        0.2299
     11 C           2.2456   58.9874   78.2224 C.ar    1  UNL1        0.1840
     12 C           2.0368   60.3505   78.3438 C.ar    1  UNL1        0.0438
     13 C           3.1465   60.8803   79.0554 C.ar    1  UNL1        0.0377
     14 C           3.5461   62.1526   79.5035 C.ar    1  UNL1        0.0031
     15 C           4.7715   62.2754   80.1768 C.ar    1  UNL1        0.0002
     16 C           5.5817   61.1604   80.4078 C.ar    1  UNL1        0.0031
     17 C           5.1952   59.8858   79.9813 C.ar    1  UNL1        0.0375
     18 C           3.9759   59.7967   79.3145 C.ar    1  UNL1        0.1454
     19 O           3.4289   58.6517   78.8243 O.2     1  UNL1       -0.4503
     20 C          -6.4204   58.8316   76.9351 C.3     1  UNL1        0.1185
     21 C          -6.9688   60.2513   76.9243 C.ar    1  UNL1        0.0038
     22 C          -7.0976   60.9901   75.7312 C.ar    1  UNL1       -0.0021
     23 C          -7.5605   62.3087   75.7361 C.ar    1  UNL1       -0.0002
     24 C          -7.9211   62.9183   76.9310 C.ar    1  UNL1        0.0005
     25 C          -7.8274   62.2054   78.1232 C.ar    1  UNL1        0.0064
     26 C          -7.3575   60.8848   78.1218 C.ar    1  UNL1        0.0322
     27 BR         -7.2683   60.0066   79.8047 Br      1  UNL1       -0.0493
@<TRIPOS>BOND
     1     9    10    2
     2    10     7    1
     3    10    11    1
     4     7     8    2
     5     8     1    1
     6     1     2    2
     7     1     6    1
     8     2     3    1
     9     3     4    1
    10     4    20    1
    11     4     5    1
    12    20    21    1
    13    21    22   ar
    14    21    26   ar
    15    22    23   ar
    16    23    24   ar
    17    24    25   ar
    18    25    26   ar
    19    26    27    1
    20     5     6    2
    21    11    12   ar
    22    11    19   ar
    23    12    13   ar
    24    13    14   ar
    25    13    18   ar
    26    14    15   ar
    27    15    16   ar
    28    16    17   ar
    29    17    18   ar
    30    18    19   ar
#	Name:			CHEMBL374981
#	Creating user name:	trannguyen
#	Creation time:		Tue Feb  8 17:54:08 2022


#	Modifying user name:	trannguyen
#	Modification time:	Tue Feb  8 17:54:08 2022

@<TRIPOS>MOLECULE
CHEMBL374981
 44 47 0 0 0
SMALL
GASTEIGER

@<TRIPOS>ATOM
      1 C           3.1962   64.0815   65.1031 C.3     1  UNL1        0.0005
      2 C           4.0650   63.4311   66.1825 C.3     1  UNL1        0.0000
      3 C           3.3394   63.2944   67.5234 C.3     1  UNL1        0.0001
      4 C           3.3071   61.8410   68.0043 C.3     1  UNL1        0.0017
      5 C           2.2723   61.5935   69.1059 C.3     1  UNL1        0.0213
      6 C           2.5874   60.2881   69.8532 C.3     1  UNL1        0.0897
      7 C           2.6977   59.3439   72.1598 C.2     1  UNL1        0.2460
      8 O           3.3207   58.3634   71.8325 O.2     1  UNL1       -0.2701
      9 N           2.2993   60.3363   71.2809 N.am    1  UNL1       -0.3009
     10 H           1.7857   61.1324   71.6279 H       1  UNL1        0.1497
     11 C           1.9594   60.9305   75.5626 C.ar    1  UNL1        0.1756
     12 C           2.2922   60.8353   74.2035 C.ar    1  UNL1        0.0448
     13 C           2.3803   59.5784   73.6055 C.ar    1  UNL1        0.0596
     14 C           2.1158   58.4362   74.3622 C.ar    1  UNL1        0.0448
     15 C           1.8642   58.5057   75.7403 C.ar    1  UNL1        0.1756
     16 C           1.7587   59.7747   76.3525 C.ar    1  UNL1        0.2061
     17 C           0.3014   62.3955   76.3558 C.3     1  UNL1        0.2526
     18 O           1.6819   62.1820   76.0642 O.3     1  UNL1       -0.4683
     19 O           1.6790   57.3473   76.4582 O.3     1  UNL1       -0.4683
     20 C           0.3146   56.9482   76.6659 C.3     1  UNL1        0.2526
     21 O           1.4498   60.0225   77.6696 O.3     1  UNL1       -0.4654
     22 C           2.5324   59.9274   78.5848 C.3     1  UNL1        0.2528
     23 C           3.3015   65.5952   65.1805 C.3     1  UNL1        0.0096
     24 C           1.9396   66.2512   65.3828 C.3     1  UNL1        0.0866
     25 C           1.9310   66.8645   66.7519 C.2     1  UNL1        0.2379
     26 O           2.1567   66.2088   67.7691 O.2     1  UNL1       -0.2736
     27 N           1.4876   68.1486   66.8731 N.am    1  UNL1       -0.2359
     28 H           1.5787   68.4463   67.8402 H       1  UNL1        0.1727
     29 N           1.7992   69.1389   65.9212 N.pl3   1  UNL1       -0.2636
     30 H           1.3826   70.0461   66.1547 H       1  UNL1        0.1700
     31 C           3.2223   69.3403   65.7618 C.ar    1  UNL1        0.0568
     32 C           3.7596   69.0991   64.4589 C.ar    1  UNL1       -0.0116
     33 C           5.1418   69.2485   64.2462 C.ar    1  UNL1       -0.0249
     34 C           5.9503   69.7473   65.2740 C.ar    1  UNL1       -0.0045
     35 C           5.4421   70.0436   66.5432 C.ar    1  UNL1        0.0009
     36 C           6.3176   70.5341   67.5313 C.ar    1  UNL1        0.0000
     37 C           5.8838   70.7978   68.8279 C.ar    1  UNL1        0.0000
     38 C           4.5642   70.5770   69.1556 C.ar    1  UNL1        0.0000
     39 C           3.6813   70.1461   68.1692 C.ar    1  UNL1        0.0013
     40 C           4.0728   69.8405   66.8278 C.ar    1  UNL1        0.0142
     41 C           5.8041   68.9090   62.9315 C.3     1  UNL1        0.0261
     42 C           4.9746   67.9565   62.0811 C.3     1  UNL1        0.0050
     43 C           3.5598   68.4981   61.9595 C.3     1  UNL1        0.0051
     44 C           2.8790   68.5779   63.3330 C.3     1  UNL1        0.0273
@<TRIPOS>BOND
     1    17    18    1
     2    18    11    1
     3    11    12   ar
     4    11    16   ar
     5    12    13   ar
     6    13     7    1
     7    13    14   ar
     8     7     8    2
     9     7     9   am
    10     9     6    1
    11     9    10    1
    12     6     5    1
    13     5     4    1
    14     4     3    1
    15     3     2    1
    16     2     1    1
    17     1    23    1
    18    23    24    1
    19    24    25    1
    20    25    26    2
    21    25    27   am
    22    27    29    1
    23    27    28    1
    24    29    31    1
    25    29    30    1
    26    31    32   ar
    27    31    40   ar
    28    32    33   ar
    29    32    44    1
    30    33    34   ar
    31    33    41    1
    32    34    35   ar
    33    35    36   ar
    34    35    40   ar
    35    36    37   ar
    36    37    38   ar
    37    38    39   ar
    38    39    40   ar
    39    41    42    1
    40    42    43    1
    41    43    44    1
    42    14    15   ar
    43    15    19    1
    44    15    16   ar
    45    19    20    1
    46    16    21    1
    47    21    22    1
#	Name:			CHEMBL3752467
#	Creating user name:	trannguyen
#	Creation time:		Tue Feb  8 17:54:08 2022


#	Modifying user name:	trannguyen
#	Modification time:	Tue Feb  8 17:54:08 2022

@<TRIPOS>MOLECULE
CHEMBL3752467
 35 39 0 0 0
SMALL
GASTEIGER

@<TRIPOS>ATOM
      1 C          -3.4835   59.7878   77.3588 C.3     1  UNL1        0.0212
      2 C          -2.2854   59.2888   78.1715 C.3     1  UNL1        0.0017
      3 C          -1.3577   60.4434   78.5488 C.3     1  UNL1        0.0001
      4 C          -1.8523   61.7735   77.9781 C.3     1  UNL1        0.0014
      5 C          -0.8416   62.3510   76.9824 C.3     1  UNL1        0.0171
      6 C           0.5150   61.6509   77.0909 C.3     1  UNL1        0.0689
      7 N           0.7009   60.7326   75.9640 N.3     1  UNL1       -0.2911
      8 H          -0.1974   60.3192   75.7111 H       1  UNL1        0.1236
      9 C           1.6233   59.6478   76.3188 C.3     1  UNL1        0.1341
     10 C          -1.4093   54.3969   76.5581 C.ar    1  UNL1        0.0002
     11 C          -2.0709   55.0374   75.5060 C.ar    1  UNL1        0.0031
     12 C          -1.6904   56.3171   75.0876 C.ar    1  UNL1        0.0375
     13 C          -0.6275   56.9056   75.7714 C.ar    1  UNL1        0.1449
     14 O          -0.1102   58.1395   75.5163 O.2     1  UNL1       -0.4564
     15 C           0.9150   58.3385   76.3998 C.ar    1  UNL1        0.1388
     16 C           1.0467   57.2355   77.2218 C.ar    1  UNL1        0.0374
     17 C           0.0541   56.3020   76.8211 C.ar    1  UNL1        0.0373
     18 C          -0.3431   55.0158   77.2296 C.ar    1  UNL1        0.0031
     19 C          -3.5306   59.1261   75.9776 C.3     1  UNL1        0.0870
     20 N          -4.8746   58.6470   75.7043 N.pl3   1  UNL1       -0.3328
     21 H          -5.3015   59.1199   74.9125 H       1  UNL1        0.1468
     22 C          -5.8504   58.2243   76.6253 C.ar    1  UNL1        0.0431
     23 C          -5.7491   57.0925   77.4718 C.ar    1  UNL1        0.0045
     24 C          -6.8738   56.7503   78.2456 C.ar    1  UNL1        0.0561
     25 N          -8.0112   57.4765   78.2840 N.ar    1  UNL1       -0.2499
     26 C          -8.1172   58.5454   77.5028 C.ar    1  UNL1        0.0820
     27 C          -9.3127   59.2479   77.5647 C.ar    1  UNL1        0.0191
     28 C          -9.5596   60.3621   76.7682 C.ar    1  UNL1        0.0015
     29 C          -8.5893   60.7786   75.8719 C.ar    1  UNL1        0.0001
     30 C          -7.3773   60.0860   75.7996 C.ar    1  UNL1        0.0027
     31 C          -7.0920   58.9636   76.6263 C.ar    1  UNL1        0.0305
     32 C          -6.9062   55.5370   79.1398 C.3     1  UNL1        0.0455
     33 C          -5.8649   54.4966   78.7641 C.3     1  UNL1        0.0066
     34 C          -4.5145   55.1799   78.6973 C.3     1  UNL1        0.0052
     35 C          -4.5119   56.2292   77.5837 C.3     1  UNL1        0.0288
@<TRIPOS>BOND
     1    10    11   ar
     2    10    18   ar
     3    11    12   ar
     4    12    13   ar
     5    13    14   ar
     6    13    17   ar
     7    14    15   ar
     8    15     9    1
     9    15    16   ar
    10     9     7    1
    11     7     6    1
    12     7     8    1
    13     6     5    1
    14     5     4    1
    15     4     3    1
    16     3     2    1
    17     2     1    1
    18     1    19    1
    19    19    20    1
    20    20    22    1
    21    20    21    1
    22    22    23   ar
    23    22    31   ar
    24    23    24   ar
    25    23    35    1
    26    24    25   ar
    27    24    32    1
    28    25    26   ar
    29    26    27   ar
    30    26    31   ar
    31    27    28   ar
    32    28    29   ar
    33    29    30   ar
    34    30    31   ar
    35    32    33    1
    36    33    34    1
    37    34    35    1
    38    16    17   ar
    39    17    18   ar
#	Name:			CHEMBL384886
#	Creating user name:	trannguyen
#	Creation time:		Tue Feb  8 17:54:08 2022


#	Modifying user name:	trannguyen
#	Modification time:	Tue Feb  8 17:54:08 2022

@<TRIPOS>MOLECULE
CHEMBL384886
 41 44 0 0 0
SMALL
GASTEIGER

@<TRIPOS>ATOM
      1 C           0.9685   58.7674   76.0373 C.3     1  UNL1        0.0883
      2 C           1.0140   57.4992   76.8903 C.2     1  UNL1        0.2379
      3 O           2.0210   56.8544   77.0940 O.2     1  UNL1       -0.2736
      4 N          -0.2541   57.1204   77.3351 N.am    1  UNL1       -0.2359
      5 H          -1.1103   57.6168   77.1215 H       1  UNL1        0.1727
      6 N          -0.3717   55.9656   78.1207 N.pl3   1  UNL1       -0.2635
      7 H           0.2455   55.2255   77.7596 H       1  UNL1        0.1700
      8 C          -1.7019   55.4411   78.2815 C.ar    1  UNL1        0.0597
      9 C          -2.0165   54.2767   77.5271 C.ar    1  UNL1        0.0060
     10 C          -3.3317   53.8165   77.5623 C.ar    1  UNL1        0.0562
     11 N          -4.3267   54.4703   78.1881 N.ar    1  UNL1       -0.2499
     12 C          -4.0443   55.5674   78.8846 C.ar    1  UNL1        0.0821
     13 C          -5.1294   56.1810   79.4887 C.ar    1  UNL1        0.0191
     14 C          -4.9809   57.2603   80.3514 C.ar    1  UNL1        0.0015
     15 C          -3.7139   57.7438   80.6086 C.ar    1  UNL1        0.0001
     16 C          -2.6234   57.2032   79.9248 C.ar    1  UNL1        0.0028
     17 C          -2.7442   56.0939   79.0344 C.ar    1  UNL1        0.0319
     18 C          -3.7317   52.4965   76.9683 C.3     1  UNL1        0.0455
     19 C          -2.9053   52.1685   75.7406 C.3     1  UNL1        0.0066
     20 C          -1.4297   52.1896   76.1161 C.3     1  UNL1        0.0052
     21 C          -0.9821   53.5452   76.6923 C.3     1  UNL1        0.0289
     22 C           1.9926   59.8416   76.4090 C.3     1  UNL1        0.0308
     23 C           1.4371   61.2647   76.3807 C.3     1  UNL1        0.0899
     24 C          -0.9052   61.9837   76.8652 C.2     1  UNL1        0.2228
     25 O          -1.1183   62.4523   75.7448 O.2     1  UNL1       -0.2751
     26 N           0.2749   61.3937   77.2464 N.am    1  UNL1       -0.3043
     27 H           0.2827   60.8839   78.1247 H       1  UNL1        0.1494
     28 C          -1.9162   62.0190   77.9987 C.3     1  UNL1        0.0897
     29 C          -2.2739   60.6144   78.4643 C.3     1  UNL1        0.0361
     30 C          -4.6901   58.5802   76.3568 C.ar    1  UNL1        0.1751
     31 C          -3.5210   59.1158   76.9055 C.ar    1  UNL1        0.0360
     32 C          -3.5643   60.1235   77.8639 C.ar    1  UNL1       -0.0155
     33 C          -4.8058   60.6126   78.2665 C.ar    1  UNL1        0.0360
     34 C          -5.9991   60.0352   77.7929 C.ar    1  UNL1        0.1751
     35 C          -5.9491   59.0475   76.7905 C.ar    1  UNL1        0.2060
     36 C          -3.5330   56.7479   75.3735 C.3     1  UNL1        0.2526
     37 O          -4.6780   57.5932   75.3986 O.3     1  UNL1       -0.4683
     38 O          -7.2178   60.3877   78.3187 O.3     1  UNL1       -0.4683
     39 C          -7.4518   59.9467   79.6566 C.3     1  UNL1        0.2526
     40 O          -7.0301   58.3975   76.2444 O.3     1  UNL1       -0.4654
     41 C          -7.6293   57.3450   76.9883 C.3     1  UNL1        0.2528
@<TRIPOS>BOND
     1    36    37    1
     2    37    30    1
     3    30    31   ar
     4    30    35   ar
     5    31    32   ar
     6    32    29    1
     7    32    33   ar
     8    29    28    1
     9    28    24    1
    10    24    25    2
    11    24    26   am
    12    26    23    1
    13    26    27    1
    14    23    22    1
    15    22     1    1
    16     1     2    1
    17     2     3    2
    18     2     4   am
    19     4     6    1
    20     4     5    1
    21     6     8    1
    22     6     7    1
    23     8     9   ar
    24     8    17   ar
    25     9    10   ar
    26     9    21    1
    27    10    11   ar
    28    10    18    1
    29    11    12   ar
    30    12    13   ar
    31    12    17   ar
    32    13    14   ar
    33    14    15   ar
    34    15    16   ar
    35    16    17   ar
    36    18    19    1
    37    19    20    1
    38    20    21    1
    39    33    34   ar
    40    34    38    1
    41    34    35   ar
    42    38    39    1
    43    35    40    1
    44    40    41    1
#	Name:			CHEMBL385269
#	Creating user name:	trannguyen
#	Creation time:		Tue Feb  8 17:54:08 2022


#	Modifying user name:	trannguyen
#	Modification time:	Tue Feb  8 17:54:08 2022

@<TRIPOS>MOLECULE
CHEMBL385269
 37 40 0 0 0
SMALL
GASTEIGER

@<TRIPOS>ATOM
      1 C           1.8308   68.4240   68.8402 C.2     1  UNL1        0.2580
      2 O           1.9753   68.0910   70.0196 O.2     1  UNL1       -0.2717
      3 N           2.4937   69.4896   68.2512 N.am    1  UNL1       -0.2345
      4 H           2.1932   69.8892   67.3636 H       1  UNL1        0.1728
      5 N           3.4431   70.2129   69.0073 N.pl3   1  UNL1       -0.2634
      6 H           3.0939   71.1487   69.2464 H       1  UNL1        0.1700
      7 C           4.7575   70.2831   68.4396 C.ar    1  UNL1        0.0597
      8 C           4.8794   70.0719   67.0427 C.ar    1  UNL1        0.0060
      9 C           6.1610   70.0819   66.4859 C.ar    1  UNL1        0.0562
     10 N           7.2622   70.4084   67.1883 N.ar    1  UNL1       -0.2499
     11 C           7.1591   70.5795   68.5044 C.ar    1  UNL1        0.0821
     12 C           8.3345   70.8697   69.1757 C.ar    1  UNL1        0.0191
     13 C           8.3825   70.9563   70.5632 C.ar    1  UNL1        0.0015
     14 C           7.2319   70.7201   71.2972 C.ar    1  UNL1        0.0001
     15 C           6.0319   70.4580   70.6339 C.ar    1  UNL1        0.0028
     16 C           5.9489   70.4417   69.2160 C.ar    1  UNL1        0.0319
     17 C           6.4320   69.7245   65.0484 C.3     1  UNL1        0.0455
     18 C           5.2511   69.0455   64.3712 C.3     1  UNL1        0.0066
     19 C           3.9888   69.8429   64.6625 C.3     1  UNL1        0.0052
     20 C           3.6751   69.8072   66.1643 C.3     1  UNL1        0.0289
     21 C           0.8652   67.7059   67.9042 C.3     1  UNL1        0.1774
     22 C           1.8147   67.2908   65.6593 C.2     1  UNL1        0.2464
     23 O           1.4425   68.3756   65.2172 O.2     1  UNL1       -0.2701
     24 N           1.5637   66.8617   66.9398 N.am    1  UNL1       -0.2931
     25 H           1.9548   65.9754   67.3264 H       1  UNL1        0.1502
     26 C           4.0696   65.7830   62.9343 C.ar    1  UNL1        0.1756
     27 C           3.2607   66.7171   63.6016 C.ar    1  UNL1        0.0448
     28 C           2.6510   66.3643   64.8198 C.ar    1  UNL1        0.0596
     29 C           2.8553   65.0765   65.3277 C.ar    1  UNL1        0.0448
     30 C           3.7457   64.1794   64.7349 C.ar    1  UNL1        0.1756
     31 C           4.3780   64.5416   63.5313 C.ar    1  UNL1        0.2061
     32 C           4.1655   67.5419   61.3524 C.3     1  UNL1        0.2526
     33 O           4.5285   66.2035   61.7040 O.3     1  UNL1       -0.4683
     34 O           4.0161   62.9454   65.2577 O.3     1  UNL1       -0.4683
     35 C           3.9611   62.7866   66.6714 C.3     1  UNL1        0.2526
     36 O           5.4620   63.8823   63.0094 O.3     1  UNL1       -0.4654
     37 C           5.8669   62.6385   63.5628 C.3     1  UNL1        0.2528
@<TRIPOS>BOND
     1    32    33    1
     2    33    26    1
     3    26    27   ar
     4    26    31   ar
     5    27    28   ar
     6    28    22    1
     7    28    29   ar
     8    22    23    2
     9    22    24   am
    10    24    21    1
    11    24    25    1
    12    21     1    1
    13     1     2    2
    14     1     3   am
    15     3     5    1
    16     3     4    1
    17     5     7    1
    18     5     6    1
    19     7     8   ar
    20     7    16   ar
    21     8     9   ar
    22     8    20    1
    23     9    10   ar
    24     9    17    1
    25    10    11   ar
    26    11    12   ar
    27    11    16   ar
    28    12    13   ar
    29    13    14   ar
    30    14    15   ar
    31    15    16   ar
    32    17    18    1
    33    18    19    1
    34    19    20    1
    35    29    30   ar
    36    30    34    1
    37    30    31   ar
    38    34    35    1
    39    31    36    1
    40    36    37    1
#	Name:			CHEMBL393212
#	Creating user name:	trannguyen
#	Creation time:		Tue Feb  8 17:54:08 2022


#	Modifying user name:	trannguyen
#	Modification time:	Tue Feb  8 17:54:08 2022

@<TRIPOS>MOLECULE
CHEMBL393212
 37 41 0 0 0
SMALL
GASTEIGER

@<TRIPOS>ATOM
      1 C           2.8915   60.9705   79.6217 C.2     1  UNL1        0.1951
      2 N           2.6110   59.7194   79.5386 N.2     1  UNL1       -0.2432
      3 C           1.3612   59.3108   78.8903 C.3     1  UNL1        0.1140
      4 C           1.5463   57.9240   78.2600 C.3     1  UNL1        0.0499
      5 C           0.4353   57.5648   77.3131 C.2     1  UNL1       -0.0326
      6 C          -0.5076   58.4286   76.8851 C.2     1  UNL1       -0.0481
      7 C          -1.6443   57.9542   76.0114 C.3     1  UNL1        0.0290
      8 C          -2.8865   57.7429   76.8887 C.3     1  UNL1        0.0616
      9 C          -3.6847   56.5426   76.4574 C.2     1  UNL1        0.1506
     10 O          -3.4673   55.9185   75.4291 O.2     1  UNL1       -0.2961
     11 C          -4.7376   56.0920   77.4405 C.3     1  UNL1        0.0646
     12 C          -5.3733   57.2461   78.3092 C.3     1  UNL1        0.0105
     13 C          -4.6421   57.3227   79.6558 C.3     1  UNL1        0.0006
     14 C          -6.9293   56.8968   78.3613 C.3     1  UNL1        0.0420
     15 C          -7.4830   57.6473   77.1052 C.3     1  UNL1        0.1118
     16 O          -7.9822   56.7285   76.1392 O.3     1  UNL1       -0.3844
     17 C          -6.3132   58.3997   76.4445 C.3     1  UNL1        0.0293
     18 C          -5.2810   58.6419   77.5715 C.3     1  UNL1        0.0033
     19 C          -5.8475   59.8199   78.4077 C.3     1  UNL1        0.0001
     20 C          -3.8227   58.9727   76.9657 C.3     1  UNL1        0.0073
     21 C          -3.0961   60.2369   77.5310 C.3     1  UNL1        0.0008
     22 C          -1.7405   60.1044   78.2532 C.3     1  UNL1        0.0042
     23 C          -0.5368   59.8926   77.3032 C.3     1  UNL1        0.0233
     24 C           0.8655   60.3395   77.8630 C.3     1  UNL1        0.0649
     25 C           1.8408   60.4843   76.6547 C.3     1  UNL1        0.0060
     26 C           0.8444   61.6668   78.6231 C.3     1  UNL1        0.2087
     27 O           2.1394   61.9923   79.1460 O.2     1  UNL1       -0.4635
     28 H          -8.8492   56.4300   76.4596 H       1  UNL1        0.2103
     29 C           4.1814   61.4443   80.2576 C.3     1  UNL1        0.0758
     30 C           5.2945   60.4485   79.9315 C.3     1  UNL1        0.0097
     31 C           4.0548   63.9461   80.7598 C.3     1  UNL1        0.0005
     32 C           4.5668   62.8639   79.8185 C.3     1  UNL1        0.0092
     33 C          -7.7886   57.1423   79.6674 C.3     1  UNL1        0.0599
     34 C          -8.1472   55.8329   80.4049 C.3     1  UNL1        0.0174
     35 N          -9.0232   57.9428   79.3812 N.3     1  UNL1       -0.2715
     36 C          -9.0921   59.1842   80.1674 C.3     1  UNL1        0.0896
     37 C         -10.2852   57.2143   79.5437 C.3     1  UNL1        0.0896
@<TRIPOS>BOND
     1    31    32    1
     2    29    30    1
     3    29     1    1
     4    29    32    1
     5     1     2    2
     6     1    27    1
     7     2     3    1
     8     3     4    1
     9     3    24    1
    10     4     5    1
    11     5     6    2
    12     6     7    1
    13     6    23    1
    14     7     8    1
    15     8     9    1
    16     8    20    1
    17     9    10    2
    18     9    11    1
    19    11    12    1
    20    12    13    1
    21    12    14    1
    22    12    18    1
    23    14    15    1
    24    33    34    1
    25    33    35    1
    26    33    14    1
    27    35    36    1
    28    35    37    1
    29    15    16    1
    30    15    17    1
    31    16    28    1
    32    17    18    1
    33    18    19    1
    34    18    20    1
    35    20    21    1
    36    21    22    1
    37    22    23    1
    38    23    24    1
    39    24    25    1
    40    24    26    1
    41    26    27    1
#	Name:			CHEMBL393621
#	Creating user name:	trannguyen
#	Creation time:		Tue Feb  8 17:54:08 2022


#	Modifying user name:	trannguyen
#	Modification time:	Tue Feb  8 17:54:08 2022

@<TRIPOS>MOLECULE
CHEMBL393621
 36 40 0 0 0
SMALL
GASTEIGER

@<TRIPOS>ATOM
      1 C           3.7531   61.2483   79.0220 C.2     1  UNL1        0.1951
      2 N           2.7228   62.0059   78.9376 N.2     1  UNL1       -0.2432
      3 C           1.5493   61.5868   78.1581 C.3     1  UNL1        0.1140
      4 C           0.2834   62.0839   78.8689 C.3     1  UNL1        0.0499
      5 C          -0.9495   61.6437   78.1366 C.2     1  UNL1       -0.0326
      6 C          -1.0383   60.4065   77.6191 C.2     1  UNL1       -0.0481
      7 C          -2.2971   59.9032   76.9446 C.3     1  UNL1        0.0290
      8 C          -2.4935   58.3773   76.9882 C.3     1  UNL1        0.0616
      9 C          -3.6680   57.9389   76.1389 C.2     1  UNL1        0.1506
     10 O          -4.1460   58.6218   75.2318 O.2     1  UNL1       -0.2961
     11 C          -4.1465   56.5388   76.4138 C.3     1  UNL1        0.0646
     12 C          -4.8693   56.5182   77.7650 C.3     1  UNL1        0.0105
     13 C          -6.2736   57.1461   77.4882 C.3     1  UNL1        0.0006
     14 C          -5.1452   55.0746   78.3738 C.3     1  UNL1        0.0420
     15 C          -5.0521   55.3195   79.8961 C.3     1  UNL1        0.1118
     16 O          -6.2540   55.8995   80.3936 O.3     1  UNL1       -0.3844
     17 C          -3.9163   56.3137   80.0584 C.3     1  UNL1        0.0293
     18 C          -4.0195   57.3161   78.8722 C.3     1  UNL1        0.0033
     19 C          -4.7403   58.5946   79.3701 C.3     1  UNL1        0.0001
     20 C          -2.5431   57.6844   78.3855 C.3     1  UNL1        0.0073
     21 C          -1.7116   58.3961   79.4839 C.3     1  UNL1        0.0008
     22 C          -0.2248   58.6565   79.1730 C.3     1  UNL1        0.0042
     23 C           0.0886   59.4238   77.8645 C.3     1  UNL1        0.0233
     24 C           1.5195   60.0827   77.7738 C.3     1  UNL1        0.0649
     25 C           1.9761   60.0000   76.2841 C.3     1  UNL1        0.0060
     26 C           2.5483   59.3202   78.6081 C.3     1  UNL1        0.2087
     27 O           3.8132   59.9722   78.5888 O.2     1  UNL1       -0.4635
     28 H          -6.9355   55.2062   80.3595 H       1  UNL1        0.2103
     29 C           4.6762   62.7498   80.7598 C.3     1  UNL1        0.0097
     30 C           5.0246   61.7152   79.6948 C.3     1  UNL1        0.0758
     31 C           5.8270   60.5593   80.2858 C.3     1  UNL1        0.0097
     32 C          -4.2629   53.8459   77.9329 C.3     1  UNL1        0.0599
     33 C          -5.0484   52.5170   77.9113 C.3     1  UNL1        0.0174
     34 N          -3.0460   53.7391   78.7880 N.3     1  UNL1       -0.2715
     35 C          -1.8048   54.0567   78.0772 C.3     1  UNL1        0.0896
     36 C          -2.9096   52.4646   79.4979 C.3     1  UNL1        0.0896
@<TRIPOS>BOND
     1    29    30    1
     2    30    31    1
     3    30     1    1
     4     1     2    2
     5     1    27    1
     6     2     3    1
     7     3     4    1
     8     3    24    1
     9     4     5    1
    10     5     6    2
    11     6     7    1
    12     6    23    1
    13     7     8    1
    14     8     9    1
    15     8    20    1
    16     9    10    2
    17     9    11    1
    18    11    12    1
    19    12    13    1
    20    12    14    1
    21    12    18    1
    22    14    15    1
    23    32    33    1
    24    32    34    1
    25    32    14    1
    26    34    35    1
    27    34    36    1
    28    15    16    1
    29    15    17    1
    30    16    28    1
    31    17    18    1
    32    18    19    1
    33    18    20    1
    34    20    21    1
    35    21    22    1
    36    22    23    1
    37    23    24    1
    38    24    25    1
    39    24    26    1
    40    26    27    1
#	Name:			CHEMBL394901
#	Creating user name:	trannguyen
#	Creation time:		Tue Feb  8 17:54:08 2022


#	Modifying user name:	trannguyen
#	Modification time:	Tue Feb  8 17:54:08 2022

@<TRIPOS>MOLECULE
CHEMBL394901
 20 20 0 0 0
SMALL
GASTEIGER

@<TRIPOS>ATOM
      1 N           3.2972   65.9192   65.1745 N.am    1  UNL1       -0.2937
      2 C           2.1050   66.5964   65.2766 C.2     1  UNL1        0.2674
      3 O           1.0440   66.1521   64.8484 O.2     1  UNL1       -0.2711
      4 H           4.1593   66.4287   65.3568 H       1  UNL1        0.1500
      5 C           3.3853   64.5875   64.5723 C.3     1  UNL1        0.1716
      6 C           3.7383   63.5633   65.6414 C.3     1  UNL1        0.0334
      7 C           4.3991   64.5653   63.4266 C.2     1  UNL1        0.3351
      8 O           5.3893   63.8336   63.3818 O.2     1  UNL1       -0.2483
      9 C           4.7097   66.7210   62.5292 C.3     1  UNL1        0.2557
     10 O           4.0415   65.4585   62.4598 O.3     1  UNL1       -0.4433
     11 C           2.1780   67.9423   66.0131 C.3     1  UNL1        0.2893
     12 O           2.9339   68.9716   65.3780 O.3     1  UNL1       -0.4656
     13 C           3.9365   69.5134   66.1398 C.ar    1  UNL1        0.1393
     14 C           5.2503   69.6701   65.6932 C.ar    1  UNL1        0.0370
     15 C           6.2157   70.2444   66.5151 C.ar    1  UNL1        0.0064
     16 C           5.8720   70.6528   67.8012 C.ar    1  UNL1        0.0424
     17 C           4.5718   70.4668   68.2786 C.ar    1  UNL1        0.0064
     18 C           3.6045   69.8908   67.4455 C.ar    1  UNL1        0.0370
     19 C           6.9125   71.2881   68.6324 C.2     1  UNL1        0.2342
     20 O           7.5592   70.6674   69.4620 O.2     1  UNL1       -0.2831
@<TRIPOS>BOND
     1     9    10    1
     2    10     7    1
     3     7     8    2
     4     7     5    1
     5     5     6    1
     6     5     1    1
     7     1     2   am
     8     1     4    1
     9     2     3    2
    10     2    11    1
    11    11    12    1
    12    12    13    1
    13    13    14   ar
    14    13    18   ar
    15    14    15   ar
    16    15    16   ar
    17    16    19    1
    18    16    17   ar
    19    19    20    2
    20    17    18   ar
#	Name:			CHEMBL396190
#	Creating user name:	trannguyen
#	Creation time:		Tue Feb  8 17:54:08 2022


#	Modifying user name:	trannguyen
#	Modification time:	Tue Feb  8 17:54:08 2022

@<TRIPOS>MOLECULE
CHEMBL396190
 41 45 0 0 0
SMALL
GASTEIGER

@<TRIPOS>ATOM
      1 C           2.6609   60.1321   70.7647 C.2     1  UNL1        0.1951
      2 N           2.2754   60.7930   71.7954 N.2     1  UNL1       -0.2432
      3 C           1.7696   60.0616   72.9611 C.3     1  UNL1        0.1140
      4 C           2.0865   60.8852   74.2144 C.3     1  UNL1        0.0499
      5 C           1.8769   60.1077   75.4751 C.2     1  UNL1       -0.0326
      6 C           1.6448   58.7795   75.5221 C.2     1  UNL1       -0.0481
      7 C           1.0894   58.1973   76.8040 C.3     1  UNL1        0.0290
      8 C          -0.3963   58.5788   76.8044 C.3     1  UNL1        0.0616
      9 C          -0.9773   58.9556   78.1337 C.2     1  UNL1        0.1506
     10 O          -0.4037   58.7653   79.2021 O.2     1  UNL1       -0.2961
     11 C          -2.2964   59.7088   78.0429 C.3     1  UNL1        0.0646
     12 C          -3.2490   59.2091   76.8692 C.3     1  UNL1        0.0117
     13 C          -3.1112   60.2165   75.7231 C.3     1  UNL1        0.0006
     14 C          -4.7155   59.0594   77.5042 C.3     1  UNL1        0.0552
     15 C          -4.6487   57.6127   78.1179 C.3     1  UNL1        0.1700
     16 C          -3.2850   56.9783   77.6983 C.3     1  UNL1        0.0437
     17 C          -2.8455   57.7466   76.4165 C.3     1  UNL1        0.0044
     18 C          -3.6793   57.1234   75.2695 C.3     1  UNL1        0.0001
     19 C          -1.2947   57.5848   76.0448 C.3     1  UNL1        0.0074
     20 C          -0.9551   57.7198   74.5062 C.3     1  UNL1        0.0008
     21 C           0.3828   57.0934   74.0698 C.3     1  UNL1        0.0042
     22 C           1.7038   57.8766   74.2982 C.3     1  UNL1        0.0233
     23 C           2.3369   58.6349   73.0601 C.3     1  UNL1        0.0649
     24 C           3.8833   58.6502   73.2734 C.3     1  UNL1        0.0060
     25 C           2.0454   58.0165   71.6916 C.3     1  UNL1        0.2087
     26 O           2.6353   58.7846   70.6300 O.2     1  UNL1       -0.4635
     27 C           3.9239   59.8163   68.6365 C.3     1  UNL1        0.0097
     28 C           3.2571   60.8304   69.5617 C.3     1  UNL1        0.0758
     29 C           2.1931   61.6373   68.8287 C.3     1  UNL1        0.0097
     30 C          -6.0178   59.2857   76.6014 C.3     1  UNL1        0.0611
     31 C          -5.7103   59.7846   75.1757 C.3     1  UNL1        0.0175
     32 N          -7.0724   60.1522   77.2290 N.3     1  UNL1       -0.2715
     33 C          -8.4165   59.5669   77.3382 C.3     1  UNL1        0.0896
     34 C          -6.6757   60.5904   78.5818 C.3     1  UNL1        0.0896
     35 O          -4.6977   57.7173   79.5583 O.3     1  UNL1       -0.4522
     36 C          -5.9351   57.6856   80.1408 C.2     1  UNL1        0.3158
     37 O          -6.4349   58.6077   80.7511 O.2     1  UNL1       -0.2501
     38 C          -6.5976   56.3016   79.9867 C.3     1  UNL1        0.0896
     39 C          -7.9254   56.3109   80.7539 C.3     1  UNL1        0.0111
     40 C          -6.8857   56.0476   78.4968 C.3     1  UNL1        0.0111
     41 C          -5.7001   55.1703   80.5084 C.3     1  UNL1        0.0111
@<TRIPOS>BOND
     1    27    28    1
     2    28    29    1
     3    28     1    1
     4     1     2    2
     5     1    26    1
     6     2     3    1
     7     3     4    1
     8     3    23    1
     9     4     5    1
    10     5     6    2
    11     6     7    1
    12     6    22    1
    13     7     8    1
    14     8     9    1
    15     8    19    1
    16     9    10    2
    17     9    11    1
    18    11    12    1
    19    12    13    1
    20    12    14    1
    21    12    17    1
    22    14    15    1
    23    30    31    1
    24    30    32    1
    25    30    14    1
    26    32    33    1
    27    32    34    1
    28    15    35    1
    29    15    16    1
    30    35    36    1
    31    36    37    2
    32    36    38    1
    33    38    39    1
    34    38    40    1
    35    38    41    1
    36    16    17    1
    37    17    18    1
    38    17    19    1
    39    19    20    1
    40    20    21    1
    41    21    22    1
    42    22    23    1
    43    23    24    1
    44    23    25    1
    45    25    26    1
#	Name:			CHEMBL4074424
#	Creating user name:	trannguyen
#	Creation time:		Tue Feb  8 17:54:08 2022


#	Modifying user name:	trannguyen
#	Modification time:	Tue Feb  8 17:54:08 2022

@<TRIPOS>MOLECULE
CHEMBL4074424
 28 30 0 0 0
SMALL
GASTEIGER

@<TRIPOS>ATOM
      1 N          -2.6563   60.1071   76.3438 N.pl3   1  UNL1       -0.3328
      2 H          -3.3331   60.7904   76.0063 H       1  UNL1        0.1468
      3 C          -3.3338   58.8546   76.4270 C.ar    1  UNL1        0.0431
      4 C          -2.6956   57.5932   76.3149 C.ar    1  UNL1        0.0045
      5 C          -3.4891   56.4451   76.4243 C.ar    1  UNL1        0.0561
      6 N          -4.7978   56.4698   76.7491 N.ar    1  UNL1       -0.2499
      7 C          -5.3977   57.6474   76.9213 C.ar    1  UNL1        0.0820
      8 C          -6.7465   57.6157   77.2475 C.ar    1  UNL1        0.0191
      9 C          -7.4941   58.7792   77.4078 C.ar    1  UNL1        0.0015
     10 C          -6.8736   60.0088   77.2484 C.ar    1  UNL1        0.0001
     11 C          -5.5082   60.0617   76.9394 C.ar    1  UNL1        0.0027
     12 C          -4.7323   58.8824   76.7681 C.ar    1  UNL1        0.0305
     13 C          -2.9291   55.0618   76.2064 C.3     1  UNL1        0.0455
     14 C          -1.6223   55.0606   75.4254 C.3     1  UNL1        0.0066
     15 C          -0.6576   56.0078   76.1025 C.3     1  UNL1        0.0052
     16 C          -1.2194   57.4191   76.0570 C.3     1  UNL1        0.0288
     17 C          -1.8653   60.6012   77.4721 C.3     1  UNL1        0.0871
     18 C          -1.4120   62.0448   77.3268 C.3     1  UNL1        0.0229
     19 C           0.0580   62.1291   76.9144 C.3     1  UNL1        0.0230
     20 C           0.5999   60.7577   76.5577 C.3     1  UNL1        0.0895
     21 C           2.2582   59.7354   75.0482 C.2     1  UNL1        0.2300
     22 O           1.9901   58.5873   75.4269 O.2     1  UNL1       -0.2746
     23 N           1.6358   60.8517   75.5493 N.am    1  UNL1       -0.3040
     24 H           1.9653   61.7685   75.2712 H       1  UNL1        0.1494
     25 C           3.3287   60.0104   74.0325 C.3     1  UNL1        0.1493
     26 C           1.8146   59.4008   72.0488 C.3     1  UNL1        0.0728
     27 C           3.1428   59.2599   72.7421 C.2     1  UNL1        0.1603
     28 O           4.0328   58.5410   72.2887 O.2     1  UNL1       -0.2955
@<TRIPOS>BOND
     1    26    27    1
     2    27    28    2
     3    27    25    1
     4    25    21    1
     5    21    22    2
     6    21    23   am
     7    23    20    1
     8    23    24    1
     9    20    19    1
    10    19    18    1
    11    18    17    1
    12    17     1    1
    13     1     3    1
    14     1     2    1
    15     3     4   ar
    16     3    12   ar
    17     4     5   ar
    18     4    16    1
    19     5     6   ar
    20     5    13    1
    21     6     7   ar
    22     7     8   ar
    23     7    12   ar
    24     8     9   ar
    25     9    10   ar
    26    10    11   ar
    27    11    12   ar
    28    13    14    1
    29    14    15    1
    30    15    16    1
#	Name:			CHEMBL4078137
#	Creating user name:	trannguyen
#	Creation time:		Tue Feb  8 17:54:08 2022


#	Modifying user name:	trannguyen
#	Modification time:	Tue Feb  8 17:54:08 2022

@<TRIPOS>MOLECULE
CHEMBL4078137
 39 42 0 0 0
SMALL
GASTEIGER

@<TRIPOS>ATOM
      1 C          -0.5166   54.6423   79.7086 C.3     1  UNL1        0.0018
      2 C           0.0602   53.8934   78.5060 C.3     1  UNL1        0.0212
      3 C           0.8927   54.8283   77.6347 C.3     1  UNL1        0.0894
      4 C           1.3903   57.2473   77.4593 C.2     1  UNL1        0.2294
      5 O           1.7685   57.1422   76.2793 O.2     1  UNL1       -0.2746
      6 N           0.9652   56.1670   78.1873 N.am    1  UNL1       -0.3040
      7 H           0.7044   56.2882   79.1612 H       1  UNL1        0.1494
      8 C           1.3826   58.5643   78.1990 C.3     1  UNL1        0.1380
      9 C           3.5137   59.8842   78.8787 C.3     1  UNL1        0.0728
     10 C           2.6078   58.6943   79.1077 C.2     1  UNL1        0.1597
     11 O           2.8588   57.8875   80.0012 O.2     1  UNL1       -0.2955
     12 C           1.3209   59.7509   77.2198 C.3     1  UNL1        0.0429
     13 C           0.3716   60.8790   77.5834 C.ar    1  UNL1       -0.0211
     14 C          -0.0026   61.8475   76.6393 C.ar    1  UNL1       -0.0011
     15 C          -0.9100   62.8606   76.9714 C.ar    1  UNL1        0.0363
     16 C          -1.4635   62.8977   78.2462 C.ar    1  UNL1        0.1337
     17 O          -2.3583   63.8603   78.6091 O.3     1  UNL1       -0.5055
     18 C          -1.1211   61.9410   79.1918 C.ar    1  UNL1        0.0363
     19 C          -0.2030   60.9377   78.8646 C.ar    1  UNL1       -0.0011
     20 H          -2.4994   64.4605   77.8592 H       1  UNL1        0.2922
     21 C          -1.8020   54.0327   80.2403 C.3     1  UNL1        0.0018
     22 C          -2.9535   55.0341   80.2302 C.3     1  UNL1        0.0212
     23 C          -4.2339   54.3938   79.7351 C.3     1  UNL1        0.0870
     24 N          -4.6947   54.9460   78.4632 N.pl3   1  UNL1       -0.3328
     25 H          -5.4312   55.6309   78.5638 H       1  UNL1        0.1468
     26 C          -3.7678   55.2626   77.4378 C.ar    1  UNL1        0.0431
     27 C          -3.2943   56.5862   77.2342 C.ar    1  UNL1        0.0045
     28 C          -2.3568   56.7942   76.2190 C.ar    1  UNL1        0.0561
     29 N          -1.7982   55.7984   75.5017 N.ar    1  UNL1       -0.2499
     30 C          -2.1951   54.5456   75.7128 C.ar    1  UNL1        0.0820
     31 C          -1.5626   53.5739   74.9482 C.ar    1  UNL1        0.0191
     32 C          -1.8982   52.2270   75.0355 C.ar    1  UNL1        0.0015
     33 C          -2.9192   51.8462   75.8889 C.ar    1  UNL1        0.0001
     34 C          -3.5694   52.8132   76.6706 C.ar    1  UNL1        0.0027
     35 C          -3.2026   54.1941   76.6373 C.ar    1  UNL1        0.0305
     36 C          -1.8559   58.1686   75.8609 C.3     1  UNL1        0.0455
     37 C          -2.7829   59.2816   76.3253 C.3     1  UNL1        0.0066
     38 C          -3.0533   59.0977   77.8047 C.3     1  UNL1        0.0052
     39 C          -3.7741   57.7779   78.0344 C.3     1  UNL1        0.0288
@<TRIPOS>BOND
     1     9    10    1
     2    10    11    2
     3    10     8    1
     4     8    12    1
     5     8     4    1
     6    12    13    1
     7    13    14   ar
     8    13    19   ar
     9    14    15   ar
    10    15    16   ar
    11    16    17    1
    12    16    18   ar
    13    17    20    1
    14    18    19   ar
    15     4     5    2
    16     4     6   am
    17     6     3    1
    18     6     7    1
    19     3     2    1
    20     2     1    1
    21     1    21    1
    22    21    22    1
    23    22    23    1
    24    23    24    1
    25    24    26    1
    26    24    25    1
    27    26    27   ar
    28    26    35   ar
    29    27    28   ar
    30    27    39    1
    31    28    29   ar
    32    28    36    1
    33    29    30   ar
    34    30    31   ar
    35    30    35   ar
    36    31    32   ar
    37    32    33   ar
    38    33    34   ar
    39    34    35   ar
    40    36    37    1
    41    37    38    1
    42    38    39    1
#	Name:			CHEMBL4080492
#	Creating user name:	trannguyen
#	Creation time:		Tue Feb  8 17:54:08 2022


#	Modifying user name:	trannguyen
#	Modification time:	Tue Feb  8 17:54:08 2022

@<TRIPOS>MOLECULE
CHEMBL4080492
 26 28 0 0 0
SMALL
GASTEIGER

@<TRIPOS>ATOM
      1 C           3.4183   69.4909   65.9536 C.ar    1  UNL1        0.0432
      2 C           3.7841   69.1930   64.6200 C.ar    1  UNL1        0.0045
      3 C           5.1365   69.3102   64.2655 C.ar    1  UNL1        0.0561
      4 N           6.0884   69.7853   65.0962 N.ar    1  UNL1       -0.2499
      5 C           5.7499   70.1138   66.3417 C.ar    1  UNL1        0.0820
      6 C           6.7601   70.6108   67.1548 C.ar    1  UNL1        0.0191
      7 C           6.5392   70.9389   68.4903 C.ar    1  UNL1        0.0015
      8 C           5.2791   70.7487   69.0331 C.ar    1  UNL1        0.0001
      9 C           4.2454   70.2624   68.2259 C.ar    1  UNL1        0.0027
     10 C           4.4435   69.9577   66.8501 C.ar    1  UNL1        0.0305
     11 C           5.6478   68.9425   62.8953 C.3     1  UNL1        0.0455
     12 C           4.6771   68.0726   62.1117 C.3     1  UNL1        0.0066
     13 C           3.3124   68.7360   62.1285 C.3     1  UNL1        0.0052
     14 C           2.7822   68.7885   63.5619 C.3     1  UNL1        0.0288
     15 N           2.1363   69.3080   66.4704 N.pl3   1  UNL1       -0.3315
     16 H           1.3972   69.8308   66.0105 H       1  UNL1        0.1469
     17 C           1.6765   68.4138   67.5326 C.3     1  UNL1        0.1086
     18 C           1.3899   66.9881   67.0273 C.3     1  UNL1        0.1106
     19 C           2.2049   65.8456   64.9615 C.2     1  UNL1        0.2300
     20 O           1.1034   65.8067   64.4321 O.2     1  UNL1       -0.2746
     21 N           2.4506   66.4466   66.1800 N.am    1  UNL1       -0.3023
     22 H           3.3561   66.3628   66.6154 H       1  UNL1        0.1495
     23 C           3.4453   65.2977   64.2940 C.3     1  UNL1        0.1493
     24 C           4.8281   63.1546   63.9837 C.3     1  UNL1        0.0728
     25 C           3.9139   63.9801   64.8553 C.2     1  UNL1        0.1603
     26 O           3.6301   63.6266   66.0004 O.2     1  UNL1       -0.2955
@<TRIPOS>BOND
     1    24    25    1
     2    25    26    2
     3    25    23    1
     4    23    19    1
     5    19    20    2
     6    19    21   am
     7    21    18    1
     8    21    22    1
     9    18    17    1
    10    17    15    1
    11    15     1    1
    12    15    16    1
    13     1     2   ar
    14     1    10   ar
    15     2     3   ar
    16     2    14    1
    17     3     4   ar
    18     3    11    1
    19     4     5   ar
    20     5     6   ar
    21     5    10   ar
    22     6     7   ar
    23     7     8   ar
    24     8     9   ar
    25     9    10   ar
    26    11    12    1
    27    12    13    1
    28    13    14    1
#	Name:			CHEMBL4083801
#	Creating user name:	trannguyen
#	Creation time:		Tue Feb  8 17:54:08 2022


#	Modifying user name:	trannguyen
#	Modification time:	Tue Feb  8 17:54:08 2022

@<TRIPOS>MOLECULE
CHEMBL4083801
 41 44 0 0 0
SMALL
GASTEIGER

@<TRIPOS>ATOM
      1 C          -0.0210   53.9393   77.6801 C.3     1  UNL1        0.0212
      2 C           1.3343   54.5993   77.9344 C.3     1  UNL1        0.0894
      3 C           1.4449   57.0379   77.4948 C.2     1  UNL1        0.2294
      4 O           1.8194   56.8982   76.3463 O.2     1  UNL1       -0.2746
      5 N           1.1537   55.9803   78.3424 N.am    1  UNL1       -0.3040
      6 H           0.8410   56.1533   79.2852 H       1  UNL1        0.1494
      7 C           1.1989   58.4010   78.1301 C.3     1  UNL1        0.1380
      8 C           2.4595   58.8961   78.8279 C.2     1  UNL1        0.1597
      9 C           2.9232   60.2993   78.5143 C.3     1  UNL1        0.0728
     10 O           3.0748   58.2183   79.6547 O.2     1  UNL1       -0.2955
     11 C           0.0265   58.3340   79.1202 C.3     1  UNL1        0.0430
     12 C          -2.1501   61.2062   77.7829 C.ar    1  UNL1        0.1718
     13 C          -1.0515   60.3571   77.9962 C.ar    1  UNL1        0.0358
     14 C          -1.1680   59.2050   78.7891 C.ar    1  UNL1       -0.0181
     15 C          -2.4207   58.8898   79.3310 C.ar    1  UNL1       -0.0009
     16 C          -3.5259   59.7097   79.1003 C.ar    1  UNL1        0.0395
     17 C          -3.3898   60.8685   78.3368 C.ar    1  UNL1        0.1677
     18 O          -4.4955   61.6474   78.1347 O.3     1  UNL1       -0.5029
     19 H          -5.2287   61.3029   78.6696 H       1  UNL1        0.2923
     20 C          -0.5094   62.4530   76.6183 C.3     1  UNL1        0.2526
     21 O          -1.8721   62.3044   77.0087 O.3     1  UNL1       -0.4684
     22 C          -0.7114   53.4264   78.9478 C.3     1  UNL1        0.0018
     23 C          -2.1591   53.9098   79.0747 C.3     1  UNL1        0.0018
     24 C          -3.1576   52.9155   78.4706 C.3     1  UNL1        0.0212
     25 C          -4.4855   53.5979   78.1308 C.3     1  UNL1        0.0870
     26 N          -4.4442   55.0158   78.4585 N.pl3   1  UNL1       -0.3328
     27 H          -4.2712   55.2131   79.4402 H       1  UNL1        0.1468
     28 C          -4.8911   56.1294   77.7420 C.ar    1  UNL1        0.0431
     29 C          -6.2020   56.6584   77.8155 C.ar    1  UNL1        0.0045
     30 C          -6.5071   57.7686   77.0130 C.ar    1  UNL1        0.0561
     31 N          -5.6171   58.3885   76.2109 N.ar    1  UNL1       -0.2499
     32 C          -4.3774   57.9127   76.1406 C.ar    1  UNL1        0.0820
     33 C          -3.5033   58.5914   75.3014 C.ar    1  UNL1        0.0191
     34 C          -2.1796   58.1946   75.1365 C.ar    1  UNL1        0.0015
     35 C          -1.7257   57.0715   75.8084 C.ar    1  UNL1        0.0001
     36 C          -2.5974   56.3678   76.6507 C.ar    1  UNL1        0.0027
     37 C          -3.9441   56.7809   76.8637 C.ar    1  UNL1        0.0305
     38 C          -7.8746   58.4000   77.0105 C.3     1  UNL1        0.0455
     39 C          -8.9579   57.4101   77.4024 C.3     1  UNL1        0.0066
     40 C          -8.6153   56.8435   78.7669 C.3     1  UNL1        0.0052
     41 C          -7.2835   56.0922   78.7076 C.3     1  UNL1        0.0288
@<TRIPOS>BOND
     1    20    21    1
     2    21    12    1
     3    12    13   ar
     4    12    17   ar
     5    13    14   ar
     6    14    11    1
     7    14    15   ar
     8    11     7    1
     9     7     8    1
    10     7     3    1
    11     8     9    1
    12     8    10    2
    13     3     4    2
    14     3     5   am
    15     5     2    1
    16     5     6    1
    17     2     1    1
    18     1    22    1
    19    22    23    1
    20    23    24    1
    21    24    25    1
    22    25    26    1
    23    26    28    1
    24    26    27    1
    25    28    29   ar
    26    28    37   ar
    27    29    30   ar
    28    29    41    1
    29    30    31   ar
    30    30    38    1
    31    31    32   ar
    32    32    33   ar
    33    32    37   ar
    34    33    34   ar
    35    34    35   ar
    36    35    36   ar
    37    36    37   ar
    38    38    39    1
    39    39    40    1
    40    40    41    1
    41    15    16   ar
    42    16    17   ar
    43    17    18    1
    44    18    19    1
#	Name:			CHEMBL4085861
#	Creating user name:	trannguyen
#	Creation time:		Tue Feb  8 17:54:08 2022


#	Modifying user name:	trannguyen
#	Modification time:	Tue Feb  8 17:54:08 2022

@<TRIPOS>MOLECULE
CHEMBL4085861
 30 32 0 0 0
SMALL
GASTEIGER

@<TRIPOS>ATOM
      1 N          -7.4939   59.3485   75.5078 N.pl3   1  UNL1       -0.3328
      2 H          -6.9282   59.4765   74.6742 H       1  UNL1        0.1468
      3 C          -6.8915   58.3842   76.3593 C.ar    1  UNL1        0.0431
      4 C          -7.6212   57.3861   77.0566 C.ar    1  UNL1        0.0045
      5 C          -6.9077   56.4994   77.8726 C.ar    1  UNL1        0.0561
      6 N          -5.5620   56.4717   77.9475 N.ar    1  UNL1       -0.2499
      7 C          -4.8568   57.3394   77.2252 C.ar    1  UNL1        0.0820
      8 C          -3.4759   57.2265   77.3137 C.ar    1  UNL1        0.0191
      9 C          -2.6171   58.0742   76.6206 C.ar    1  UNL1        0.0015
     10 C          -3.1540   59.0645   75.8169 C.ar    1  UNL1        0.0001
     11 C          -4.5446   59.1889   75.7085 C.ar    1  UNL1        0.0027
     12 C          -5.4448   58.3291   76.4081 C.ar    1  UNL1        0.0305
     13 C          -7.5909   55.4515   78.7141 C.3     1  UNL1        0.0455
     14 C          -9.0591   55.7515   78.9738 C.3     1  UNL1        0.0066
     15 C          -9.7382   56.0186   77.6483 C.3     1  UNL1        0.0052
     16 C          -9.1231   57.2465   76.9907 C.3     1  UNL1        0.0288
     17 C          -7.9413   60.6539   75.9898 C.3     1  UNL1        0.0870
     18 C          -7.5221   60.8758   77.4416 C.3     1  UNL1        0.0212
     19 C          -6.4243   61.9418   77.5940 C.3     1  UNL1        0.0018
     20 C          -5.2608   61.4815   78.4854 C.3     1  UNL1        0.0018
     21 C          -4.7781   62.5815   79.4310 C.3     1  UNL1        0.0212
     22 C          -4.5596   63.8989   78.6849 C.3     1  UNL1        0.0894
     23 C          -2.9251   64.6531   76.9809 C.2     1  UNL1        0.2300
     24 O          -3.7690   65.1893   76.2854 O.2     1  UNL1       -0.2746
     25 N          -3.2055   64.0246   78.1776 N.am    1  UNL1       -0.3040
     26 H          -2.4490   63.6648   78.7459 H       1  UNL1        0.1494
     27 C          -1.4695   64.6192   76.5859 C.3     1  UNL1        0.1493
     28 C          -0.3934   62.2639   76.6425 C.3     1  UNL1        0.0728
     29 C          -1.0591   63.3671   75.8624 C.2     1  UNL1        0.1603
     30 O          -1.1720   63.2891   74.6361 O.2     1  UNL1       -0.2955
@<TRIPOS>BOND
     1    28    29    1
     2    29    30    2
     3    29    27    1
     4    27    23    1
     5    23    24    2
     6    23    25   am
     7    25    22    1
     8    25    26    1
     9    22    21    1
    10    21    20    1
    11    20    19    1
    12    19    18    1
    13    18    17    1
    14    17     1    1
    15     1     3    1
    16     1     2    1
    17     3     4   ar
    18     3    12   ar
    19     4     5   ar
    20     4    16    1
    21     5     6   ar
    22     5    13    1
    23     6     7   ar
    24     7     8   ar
    25     7    12   ar
    26     8     9   ar
    27     9    10   ar
    28    10    11   ar
    29    11    12   ar
    30    13    14    1
    31    14    15    1
    32    15    16    1
#	Name:			CHEMBL4100399
#	Creating user name:	trannguyen
#	Creation time:		Tue Feb  8 17:54:08 2022


#	Modifying user name:	trannguyen
#	Modification time:	Tue Feb  8 17:54:08 2022

@<TRIPOS>MOLECULE
CHEMBL4100399
 27 29 0 0 0
SMALL
GASTEIGER

@<TRIPOS>ATOM
      1 C           3.2935   69.4259   65.8962 C.ar    1  UNL1        0.0431
      2 C           3.6897   69.2030   64.5505 C.ar    1  UNL1        0.0045
      3 C           5.0420   69.3910   64.2134 C.ar    1  UNL1        0.0561
      4 N           5.9583   69.8964   65.0616 N.ar    1  UNL1       -0.2499
      5 C           5.5948   70.1612   66.3128 C.ar    1  UNL1        0.0820
      6 C           6.5762   70.7084   67.1263 C.ar    1  UNL1        0.0191
      7 C           6.3528   70.9797   68.4720 C.ar    1  UNL1        0.0015
      8 C           5.1249   70.6627   69.0268 C.ar    1  UNL1        0.0001
      9 C           4.1146   70.1314   68.2150 C.ar    1  UNL1        0.0027
     10 C           4.3019   69.9028   66.8196 C.ar    1  UNL1        0.0305
     11 C           5.5982   69.0425   62.8534 C.3     1  UNL1        0.0455
     12 C           4.6980   68.1013   62.0681 C.3     1  UNL1        0.0066
     13 C           3.3027   68.6959   62.0383 C.3     1  UNL1        0.0052
     14 C           2.7451   68.7411   63.4653 C.3     1  UNL1        0.0288
     15 N           2.0261   69.1324   66.4207 N.pl3   1  UNL1       -0.3328
     16 H           1.3196   69.8346   66.2320 H       1  UNL1        0.1468
     17 C           1.5261   67.9011   67.0170 C.3     1  UNL1        0.0888
     18 C           2.2686   66.6684   66.4740 C.3     1  UNL1        0.0424
     19 C           1.6412   66.0672   65.2171 C.3     1  UNL1        0.0912
     20 C           3.2529   64.1855   65.4172 C.2     1  UNL1        0.2300
     21 O           3.2527   64.2157   66.6304 O.2     1  UNL1       -0.2746
     22 N           2.5259   65.0631   64.6352 N.am    1  UNL1       -0.3039
     23 H           2.5651   64.9852   63.6299 H       1  UNL1        0.1494
     24 C           4.0780   63.1788   64.6476 C.3     1  UNL1        0.1493
     25 C           5.2442   65.2980   63.7186 C.3     1  UNL1        0.0728
     26 C           5.2069   63.7983   63.8664 C.2     1  UNL1        0.1603
     27 O           6.0481   63.0865   63.3096 O.2     1  UNL1       -0.2955
@<TRIPOS>BOND
     1    25    26    1
     2    26    27    2
     3    26    24    1
     4    24    20    1
     5    20    21    2
     6    20    22   am
     7    22    19    1
     8    22    23    1
     9    19    18    1
    10    18    17    1
    11    17    15    1
    12    15     1    1
    13    15    16    1
    14     1     2   ar
    15     1    10   ar
    16     2     3   ar
    17     2    14    1
    18     3     4   ar
    19     3    11    1
    20     4     5   ar
    21     5     6   ar
    22     5    10   ar
    23     6     7   ar
    24     7     8   ar
    25     8     9   ar
    26     9    10   ar
    27    11    12    1
    28    12    13    1
    29    13    14    1
#	Name:			CHEMBL4105187
#	Creating user name:	trannguyen
#	Creation time:		Tue Feb  8 17:54:08 2022


#	Modifying user name:	trannguyen
#	Modification time:	Tue Feb  8 17:54:08 2022

@<TRIPOS>MOLECULE
CHEMBL4105187
 41 44 0 0 0
SMALL
GASTEIGER

@<TRIPOS>ATOM
      1 C          -0.4620   54.5235   76.6378 C.3     1  UNL1        0.0213
      2 C           0.6354   55.0134   77.6047 C.3     1  UNL1        0.0897
      3 C           1.2161   57.4089   77.2560 C.2     1  UNL1        0.2486
      4 O           1.9047   57.0957   76.2542 O.2     1  UNL1       -0.2700
      5 N           0.5527   56.4382   77.9500 N.am    1  UNL1       -0.3008
      6 H          -0.0941   56.7284   78.6888 H       1  UNL1        0.1497
      7 C          -0.0177   59.4619   77.3908 C.2     1  UNL1        0.0075
      8 C           1.1517   58.8648   77.7117 C.2     1  UNL1        0.0880
      9 C          -2.1902   62.3761   78.4904 C.ar    1  UNL1        0.1721
     10 C          -1.6043   61.0981   78.4259 C.ar    1  UNL1        0.0400
     11 C          -0.5400   60.8307   77.5490 C.ar    1  UNL1        0.0035
     12 C          -0.0666   61.8617   76.7288 C.ar    1  UNL1        0.0033
     13 C          -0.6347   63.1366   76.7946 C.ar    1  UNL1        0.0398
     14 C          -1.6663   63.3983   77.6939 C.ar    1  UNL1        0.1677
     15 O          -2.0990   64.6892   77.8043 O.3     1  UNL1       -0.5029
     16 H          -1.3656   65.2806   77.5669 H       1  UNL1        0.2923
     17 C          -4.4863   62.0428   78.9816 C.3     1  UNL1        0.2526
     18 O          -3.2045   62.5075   79.4052 O.3     1  UNL1       -0.4684
     19 C           2.2967   59.5351   78.4156 C.2     1  UNL1        0.1779
     20 C           2.3815   59.5629   79.9409 C.3     1  UNL1        0.0774
     21 O           3.1875   60.0676   77.7599 O.2     1  UNL1       -0.2912
     22 C          -1.2541   53.3074   77.1409 C.3     1  UNL1        0.0018
     23 C          -2.3387   53.6385   78.1781 C.3     1  UNL1        0.0018
     24 C          -3.7476   53.4506   77.5899 C.3     1  UNL1        0.0212
     25 C          -4.8697   53.9167   78.5234 C.3     1  UNL1        0.0870
     26 N          -4.8963   55.3686   78.6489 N.pl3   1  UNL1       -0.3328
     27 H          -4.1039   55.7347   79.1687 H       1  UNL1        0.1468
     28 C          -5.5386   56.3324   77.8551 C.ar    1  UNL1        0.0431
     29 C          -4.7116   57.1400   77.0029 C.ar    1  UNL1        0.0045
     30 C          -5.3099   58.1494   76.2349 C.ar    1  UNL1        0.0561
     31 N          -6.6303   58.4021   76.2597 N.ar    1  UNL1       -0.2499
     32 C          -7.4128   57.6823   77.0606 C.ar    1  UNL1        0.0820
     33 C          -8.7596   58.0195   77.0225 C.ar    1  UNL1        0.0191
     34 C          -9.7114   57.3743   77.8043 C.ar    1  UNL1        0.0015
     35 C          -9.3078   56.3480   78.6294 C.ar    1  UNL1        0.0001
     36 C          -7.9643   55.9683   78.6422 C.ar    1  UNL1        0.0027
     37 C          -6.9506   56.6319   77.8910 C.ar    1  UNL1        0.0305
     38 C          -4.5534   58.9710   75.2206 C.3     1  UNL1        0.0455
     39 C          -3.0539   59.0341   75.4561 C.3     1  UNL1        0.0066
     40 C          -2.5356   57.6316   75.7219 C.3     1  UNL1        0.0052
     41 C          -3.1967   57.0208   76.9657 C.3     1  UNL1        0.0288
@<TRIPOS>BOND
     1    17    18    1
     2    18     9    1
     3     9    10   ar
     4     9    14   ar
     5    10    11   ar
     6    11     7    1
     7    11    12   ar
     8     7     8    2
     9     8    19    1
    10     8     3    1
    11    19    20    1
    12    19    21    2
    13     3     4    2
    14     3     5   am
    15     5     2    1
    16     5     6    1
    17     2     1    1
    18     1    22    1
    19    22    23    1
    20    23    24    1
    21    24    25    1
    22    25    26    1
    23    26    28    1
    24    26    27    1
    25    28    29   ar
    26    28    37   ar
    27    29    30   ar
    28    29    41    1
    29    30    31   ar
    30    30    38    1
    31    31    32   ar
    32    32    33   ar
    33    32    37   ar
    34    33    34   ar
    35    34    35   ar
    36    35    36   ar
    37    36    37   ar
    38    38    39    1
    39    39    40    1
    40    40    41    1
    41    12    13   ar
    42    13    14   ar
    43    14    15    1
    44    15    16    1
#	Name:			CHEMBL4170878
#	Creating user name:	trannguyen
#	Creation time:		Tue Feb  8 17:54:08 2022


#	Modifying user name:	trannguyen
#	Modification time:	Tue Feb  8 17:54:08 2022

@<TRIPOS>MOLECULE
CHEMBL4170878
 26 29 0 0 0
SMALL
GASTEIGER

@<TRIPOS>ATOM
      1 C           3.1782   69.1263   65.5044 C.2     1  UNL1       -0.0032
      2 C           2.2131   69.2044   66.5140 C.2     1  UNL1       -0.0073
      3 C           2.5415   69.7437   67.7567 C.3     1  UNL1        0.1175
      4 N           3.7865   70.2116   67.9913 N.pl3   1  UNL1       -0.2985
      5 C           4.7320   70.1455   67.0313 C.2     1  UNL1        0.0616
      6 C           4.4565   69.6002   65.7850 C.2     1  UNL1        0.0129
      7 C           2.8623   68.5273   64.1536 C.3     1  UNL1        0.1278
      8 O           5.3554   67.3348   62.9838 O.2     1  UNL1       -0.2695
      9 C           4.4438   66.7016   63.4856 C.2     1  UNL1        0.2554
     10 C           4.5022   65.2607   63.7190 C.ar    1  UNL1        0.0584
     11 C           5.4593   64.3314   63.3598 C.ar    1  UNL1        0.0047
     12 C           5.2522   63.0094   63.7675 C.ar    1  UNL1        0.0001
     13 C           4.1188   62.6575   64.5296 C.ar    1  UNL1        0.0001
     14 C           3.1701   63.6198   64.8902 C.ar    1  UNL1        0.0047
     15 C           3.3861   64.9141   64.4563 C.ar    1  UNL1        0.0584
     16 C           2.6108   66.1332   64.6699 C.2     1  UNL1        0.2554
     17 O           1.6289   66.1973   65.3929 O.2     1  UNL1       -0.2695
     18 N           3.2487   67.1384   63.9925 N.am    1  UNL1       -0.2185
     19 C           4.1365   70.8222   69.2928 C.3     1  UNL1        0.1202
     20 C           5.6199   70.8786   69.5041 C.ar    1  UNL1        0.0251
     21 C           6.2353   70.2006   70.5654 C.ar    1  UNL1       -0.0004
     22 C           7.6225   70.2539   70.7241 C.ar    1  UNL1       -0.0001
     23 C           8.4066   70.9849   69.8312 C.ar    1  UNL1        0.0023
     24 C           7.8030   71.6730   68.7811 C.ar    1  UNL1        0.0294
     25 C           6.4212   71.6173   68.6311 C.ar    1  UNL1        0.1377
     26 F           5.8467   72.2828   67.6183 F       1  UNL1       -0.2044
@<TRIPOS>BOND
     1     8     9    2
     2     9    10    1
     3     9    18   am
     4    10    11   ar
     5    10    15   ar
     6    11    12   ar
     7    12    13   ar
     8    13    14   ar
     9    14    15   ar
    10    15    16    1
    11    16    17    2
    12    16    18   am
    13    18     7    1
    14     7     1    1
    15     1     2    2
    16     1     6    1
    17     2     3    1
    18     3     4    1
    19     4    19    1
    20     4     5    1
    21    19    20    1
    22    20    21   ar
    23    20    25   ar
    24    21    22   ar
    25    22    23   ar
    26    23    24   ar
    27    24    25   ar
    28    25    26    1
    29     5     6    2
#	Name:			CHEMBL419926
#	Creating user name:	trannguyen
#	Creation time:		Tue Feb  8 17:54:08 2022


#	Modifying user name:	trannguyen
#	Modification time:	Tue Feb  8 17:54:08 2022

@<TRIPOS>MOLECULE
CHEMBL419926
 30 32 0 0 0
SMALL
GASTEIGER

@<TRIPOS>ATOM
      1 C          -2.8576   53.4148   78.0226 C.3     1  UNL1        0.0519
      2 C          -3.0089   54.7075   77.2736 C.ar    1  UNL1        0.0589
      3 N          -3.9973   55.5074   77.7441 N.ar    1  UNL1       -0.2497
      4 C          -4.2072   56.6992   77.1758 C.ar    1  UNL1        0.0842
      5 C          -5.1773   57.5218   77.7400 C.ar    1  UNL1        0.0193
      6 C          -5.4637   58.7890   77.2312 C.ar    1  UNL1        0.0039
      7 C          -4.7832   59.2344   76.1100 C.ar    1  UNL1        0.0298
      8 C          -3.8107   58.4184   75.5358 C.ar    1  UNL1        0.1427
      9 F          -3.1946   58.8749   74.4317 F       1  UNL1       -0.2041
     10 C          -3.4765   57.1477   76.0628 C.ar    1  UNL1        0.0578
     11 C          -2.4579   56.2883   75.5544 C.ar    1  UNL1        0.0446
     12 N          -1.5536   56.7629   74.5667 N.pl3   1  UNL1       -0.3571
     13 C          -2.1830   55.0635   76.2012 C.ar    1  UNL1        0.0339
     14 H          -1.9652   57.4913   73.9830 H       1  UNL1        0.1423
     15 H          -1.1744   56.0051   73.9997 H       1  UNL1        0.1423
     16 C          -0.9953   54.2171   75.8004 C.3     1  UNL1        0.1714
     17 O           0.2342   54.9406   75.9387 O.3     1  UNL1       -0.3442
     18 C           0.7514   54.8088   77.2667 C.3     1  UNL1        0.1691
     19 C           0.8357   56.1664   77.9176 C.ar    1  UNL1        0.0074
     20 C           1.0391   56.3033   79.2956 C.ar    1  UNL1       -0.0018
     21 C           1.1117   57.5722   79.8747 C.ar    1  UNL1       -0.0002
     22 C           1.0014   58.7169   79.0781 C.ar    1  UNL1        0.0031
     23 C           0.8311   58.5985   77.6894 C.ar    1  UNL1        0.0429
     24 C           0.7305   57.3195   77.1266 C.ar    1  UNL1        0.0013
     25 C           0.7070   59.8165   76.8407 C.2     1  UNL1        0.2666
     26 O          -0.4360   60.2585   76.6344 O.2     1  UNL1       -0.2825
     27 C           1.9626   60.4788   76.2739 C.3     1  UNL1        0.4554
     28 F           3.0487   60.4713   77.1020 F       1  UNL1       -0.1631
     29 F           2.3815   59.8853   75.1175 F       1  UNL1       -0.1631
     30 F           1.7586   61.7911   75.9720 F       1  UNL1       -0.1631
@<TRIPOS>BOND
     1     1     2    1
     2     2     3   ar
     3     2    13   ar
     4     3     4   ar
     5     4     5   ar
     6     4    10   ar
     7     5     6   ar
     8     6     7   ar
     9     7     8   ar
    10     8     9    1
    11     8    10   ar
    12    10    11   ar
    13    11    12    1
    14    11    13   ar
    15    12    14    1
    16    12    15    1
    17    13    16    1
    18    16    17    1
    19    17    18    1
    20    18    19    1
    21    19    20   ar
    22    19    24   ar
    23    20    21   ar
    24    21    22   ar
    25    22    23   ar
    26    23    25    1
    27    23    24   ar
    28    25    26    2
    29    25    27    1
    30    27    28    1
    31    27    29    1
    32    27    30    1
#	Name:			CHEMBL441433
#	Creating user name:	trannguyen
#	Creation time:		Tue Feb  8 17:54:08 2022


#	Modifying user name:	trannguyen
#	Modification time:	Tue Feb  8 17:54:08 2022

@<TRIPOS>MOLECULE
CHEMBL441433
 17 18 0 0 0
SMALL
GASTEIGER

@<TRIPOS>ATOM
      1 C           3.5822   68.7677   63.0042 C.ar    1  UNL1        0.0767
      2 C           4.8421   68.5341   62.4543 C.ar    1  UNL1        0.0065
      3 C           5.9749   68.7178   63.2372 C.ar    1  UNL1        0.0015
      4 C           5.8506   69.1323   64.5691 C.ar    1  UNL1        0.0153
      5 C           4.5957   69.3669   65.1575 C.ar    1  UNL1        0.0615
      6 C           3.4634   69.1623   64.3474 C.ar    1  UNL1        0.0218
      7 N           4.4730   69.7864   66.5197 N.am    1  UNL1       -0.2011
      8 C           3.3361   69.7165   67.2816 C.2     1  UNL1        0.2590
      9 O           2.2118   69.3168   67.0268 O.2     1  UNL1       -0.2691
     10 C           3.6548   70.2416   68.6134 C.2     1  UNL1        0.0634
     11 C           4.9350   70.5958   68.6168 C.2     1  UNL1        0.0634
     12 C           5.4838   70.3021   67.2892 C.2     1  UNL1        0.2590
     13 O           6.6614   70.5017   67.0435 O.2     1  UNL1       -0.2691
     14 O           1.3692   68.0211   62.5775 O.2     1  UNL1       -0.2451
     15 C           2.3919   68.5296   62.1506 C.2     1  UNL1        0.3381
     16 O           2.5587   68.8777   60.8581 O.3     1  UNL1       -0.4771
     17 H           3.4608   69.1437   60.6004 H       1  UNL1        0.2954
@<TRIPOS>BOND
     1    14    15    2
     2    15    16    1
     3    15     1    1
     4    16    17    1
     5     1     2   ar
     6     1     6   ar
     7     2     3   ar
     8     3     4   ar
     9     4     5   ar
    10     5     7    1
    11     5     6   ar
    12     7     8   am
    13     7    12   am
    14     8     9    2
    15     8    10    1
    16    10    11    2
    17    11    12    1
    18    12    13    2
#	Name:			CHEMBL445846
#	Creating user name:	trannguyen
#	Creation time:		Tue Feb  8 17:54:08 2022


#	Modifying user name:	trannguyen
#	Modification time:	Tue Feb  8 17:54:08 2022

@<TRIPOS>MOLECULE
CHEMBL445846
 39 42 0 0 0
SMALL
GASTEIGER

@<TRIPOS>ATOM
      1 C          -0.8788   63.4421   75.8032 C.2     1  UNL1        0.2580
      2 O          -1.2633   63.0598   74.6952 O.2     1  UNL1       -0.2717
      3 N          -0.0956   62.6680   76.6441 N.am    1  UNL1       -0.2345
      4 H           0.1580   62.9818   77.5762 H       1  UNL1        0.1728
      5 N           0.3461   61.3894   76.2337 N.pl3   1  UNL1       -0.2634
      6 H          -0.2414   61.0456   75.4632 H       1  UNL1        0.1700
      7 C           0.3776   60.3954   77.2760 C.ar    1  UNL1        0.0597
      8 C          -0.8426   59.7313   77.5821 C.ar    1  UNL1        0.0060
      9 C          -0.8413   58.8181   78.6401 C.ar    1  UNL1        0.0562
     10 N           0.2687   58.5002   79.3366 N.ar    1  UNL1       -0.2499
     11 C           1.4110   59.1355   79.0721 C.ar    1  UNL1        0.0821
     12 C           2.5081   58.7690   79.8388 C.ar    1  UNL1        0.0191
     13 C           3.7529   59.3735   79.6883 C.ar    1  UNL1        0.0015
     14 C           3.8940   60.4010   78.7754 C.ar    1  UNL1        0.0001
     15 C           2.7944   60.7949   78.0097 C.ar    1  UNL1        0.0028
     16 C           1.5349   60.1381   78.0886 C.ar    1  UNL1        0.0319
     17 C          -2.0735   58.0641   79.0671 C.3     1  UNL1        0.0455
     18 C          -3.3654   58.7203   78.6054 C.3     1  UNL1        0.0066
     19 C          -3.2630   59.0120   77.1161 C.3     1  UNL1        0.0052
     20 C          -2.1308   60.0128   76.8328 C.3     1  UNL1        0.0289
     21 C          -1.3861   64.7555   76.4291 C.3     1  UNL1        0.1772
     22 C          -3.5580   64.9859   77.5572 C.2     1  UNL1        0.2231
     23 O          -4.0699   65.3734   76.5319 O.2     1  UNL1       -0.2751
     24 N          -2.2417   64.5735   77.5969 N.am    1  UNL1       -0.2966
     25 H          -1.8393   64.2044   78.4469 H       1  UNL1        0.1499
     26 C          -4.3261   64.7800   78.8515 C.3     1  UNL1        0.0897
     27 C          -4.5910   63.3017   79.1312 C.3     1  UNL1        0.0361
     28 C          -7.8752   63.1223   77.2341 C.ar    1  UNL1        0.1751
     29 C          -6.7815   63.5683   77.9698 C.ar    1  UNL1        0.0360
     30 C          -5.7650   62.7031   78.3876 C.ar    1  UNL1       -0.0155
     31 C          -5.8710   61.3458   78.0636 C.ar    1  UNL1        0.0360
     32 C          -6.9417   60.8751   77.2721 C.ar    1  UNL1        0.1751
     33 C          -7.9563   61.7669   76.8657 C.ar    1  UNL1        0.2060
     34 C          -8.9826   65.2431   77.4440 C.3     1  UNL1        0.2526
     35 O          -8.9258   63.9325   76.9063 O.3     1  UNL1       -0.4683
     36 O          -6.9108   59.5223   77.0276 O.3     1  UNL1       -0.4683
     37 C          -7.0703   58.6480   78.1436 C.3     1  UNL1        0.2526
     38 O          -9.0669   61.2642   76.2272 O.3     1  UNL1       -0.4654
     39 C         -10.0376   60.6574   77.0821 C.3     1  UNL1        0.2528
@<TRIPOS>BOND
     1    34    35    1
     2    35    28    1
     3    28    29   ar
     4    28    33   ar
     5    29    30   ar
     6    30    27    1
     7    30    31   ar
     8    27    26    1
     9    26    22    1
    10    22    23    2
    11    22    24   am
    12    24    21    1
    13    24    25    1
    14    21     1    1
    15     1     2    2
    16     1     3   am
    17     3     5    1
    18     3     4    1
    19     5     7    1
    20     5     6    1
    21     7     8   ar
    22     7    16   ar
    23     8     9   ar
    24     8    20    1
    25     9    10   ar
    26     9    17    1
    27    10    11   ar
    28    11    12   ar
    29    11    16   ar
    30    12    13   ar
    31    13    14   ar
    32    14    15   ar
    33    15    16   ar
    34    17    18    1
    35    18    19    1
    36    19    20    1
    37    31    32   ar
    38    32    36    1
    39    32    33   ar
    40    36    37    1
    41    33    38    1
    42    38    39    1
#	Name:			CHEMBL4633036
#	Creating user name:	trannguyen
#	Creation time:		Tue Feb  8 17:54:08 2022


#	Modifying user name:	trannguyen
#	Modification time:	Tue Feb  8 17:54:08 2022

@<TRIPOS>MOLECULE
CHEMBL4633036
 32 34 0 0 0
SMALL
GASTEIGER

@<TRIPOS>ATOM
      1 C           2.1628   67.3832   66.6536 C.3     1  UNL1        0.0888
      2 N           1.6880   66.8194   65.3858 N.pl3   1  UNL1       -0.3328
      3 H           1.0368   66.0471   65.5063 H       1  UNL1        0.1468
      4 C           2.6917   66.4549   64.4412 C.ar    1  UNL1        0.0431
      5 C           2.9532   67.3604   63.3863 C.ar    1  UNL1        0.0045
      6 C           3.9126   66.9947   62.4399 C.ar    1  UNL1        0.0561
      7 N           4.6959   65.9023   62.5632 N.ar    1  UNL1       -0.2499
      8 C           4.4315   65.0286   63.5360 C.ar    1  UNL1        0.0820
      9 C           5.2416   63.9024   63.6119 C.ar    1  UNL1        0.0191
     10 C           4.9964   62.8702   64.5154 C.ar    1  UNL1        0.0015
     11 C           3.8647   62.9256   65.3042 C.ar    1  UNL1        0.0001
     12 C           3.0391   64.0456   65.2262 C.ar    1  UNL1        0.0027
     13 C           3.3605   65.1833   64.4351 C.ar    1  UNL1        0.0305
     14 C           4.1294   67.7859   61.1781 C.3     1  UNL1        0.0455
     15 C           2.9215   68.6485   60.8367 C.3     1  UNL1        0.0066
     16 C           2.5979   69.5244   62.0373 C.3     1  UNL1        0.0052
     17 C           2.2087   68.6739   63.2563 C.3     1  UNL1        0.0288
     18 C           2.1024   68.9051   66.6600 C.3     1  UNL1        0.0424
     19 C           2.5122   69.4354   68.0385 C.3     1  UNL1        0.0912
     20 C           4.3337   70.8245   69.0338 C.2     1  UNL1        0.2374
     21 O           3.7178   71.0559   70.0878 O.2     1  UNL1       -0.2736
     22 N           3.8095   70.0796   68.0020 N.am    1  UNL1       -0.3032
     23 H           4.4758   69.7437   67.3091 H       1  UNL1        0.1495
     24 C           5.7820   71.3196   68.7974 C.3     1  UNL1        0.1392
     25 N           5.7833   72.6510   68.1371 N.3     1  UNL1       -0.3143
     26 H           5.6478   72.5195   67.1347 H       1  UNL1        0.1193
     27 H           4.9871   73.1852   68.4841 H       1  UNL1        0.1193
     28 C           6.5973   70.2864   67.9990 C.3     1  UNL1        0.0827
     29 S           6.6989   70.7008   66.2076 S.3     1  UNL1       -0.1335
     30 C           5.4135   69.6020   65.5507 C.3     1  UNL1        0.0835
     31 C           5.9523   69.5738   63.1065 C.2     1  UNL1       -0.0040
     32 C           5.8374   68.9357   64.2794 C.2     1  UNL1       -0.0145
@<TRIPOS>BOND
     1    31    32    2
     2    32    30    1
     3    30    29    1
     4    29    28    1
     5    28    24    1
     6    24    25    1
     7    24    20    1
     8    25    26    1
     9    25    27    1
    10    20    21    2
    11    20    22   am
    12    22    19    1
    13    22    23    1
    14    19    18    1
    15    18     1    1
    16     1     2    1
    17     2     4    1
    18     2     3    1
    19     4     5   ar
    20     4    13   ar
    21     5     6   ar
    22     5    17    1
    23     6     7   ar
    24     6    14    1
    25     7     8   ar
    26     8     9   ar
    27     8    13   ar
    28     9    10   ar
    29    10    11   ar
    30    11    12   ar
    31    12    13   ar
    32    14    15    1
    33    15    16    1
    34    16    17    1
#	Name:			CHEMBL4633417
#	Creating user name:	trannguyen
#	Creation time:		Tue Feb  8 17:54:08 2022


#	Modifying user name:	trannguyen
#	Modification time:	Tue Feb  8 17:54:08 2022

@<TRIPOS>MOLECULE
CHEMBL4633417
 43 47 0 0 0
SMALL
GASTEIGER

@<TRIPOS>ATOM
      1 N          -0.4282   58.2474   77.7377 N.am    1  UNL1       -0.2976
      2 C          -0.1969   57.6156   76.5389 C.2     1  UNL1        0.2228
      3 O           0.0449   58.2198   75.5016 O.2     1  UNL1       -0.2751
      4 H          -0.7448   57.6874   78.5206 H       1  UNL1        0.1498
      5 C          -0.4527   59.7193   77.9182 C.3     1  UNL1        0.1598
      6 C          -1.8493   60.3724   77.6002 C.2     1  UNL1        0.2463
      7 O          -2.2438   60.4703   76.4399 O.2     1  UNL1       -0.2729
      8 N          -2.6311   60.5834   78.7213 N.am    1  UNL1       -0.2628
      9 H          -2.2584   60.3477   79.6274 H       1  UNL1        0.1568
     10 C          -3.9149   61.0746   78.7010 C.ar    1  UNL1        0.1655
     11 N          -4.4201   62.1417   78.1364 N.ar    1  UNL1       -0.2239
     12 C          -5.7799   62.2375   78.4402 C.ar    1  UNL1        0.0892
     13 C          -6.6628   63.2768   78.0649 C.ar    1  UNL1        0.0197
     14 C          -8.0138   63.2274   78.4414 C.ar    1  UNL1        0.0016
     15 C          -8.5026   62.1520   79.1750 C.ar    1  UNL1        0.0006
     16 C          -7.6543   61.1090   79.5586 C.ar    1  UNL1        0.0081
     17 C          -6.2949   61.1811   79.1975 C.ar    1  UNL1        0.0497
     18 S          -5.0102   60.0971   79.5791 S.2     1  UNL1       -0.0514
     19 C           0.1393   60.2869   79.2462 C.3     1  UNL1        0.0875
     20 S           1.3008   61.7141   79.0388 S.3     1  UNL1       -0.1238
     21 C           2.6224   60.9058   78.0594 C.3     1  UNL1        0.1342
     22 C           4.2934   59.4339   79.6329 C.1     1  UNL1       -0.0133
     23 C           3.5611   60.0771   78.9300 C.1     1  UNL1       -0.0660
     24 C          -0.1892   56.0924   76.6083 C.3     1  UNL1        0.0868
     25 C          -1.4675   55.4656   77.1791 C.3     1  UNL1        0.0307
     26 C          -2.7577   56.0728   76.5947 C.3     1  UNL1        0.0875
     27 N          -3.5483   56.7395   77.6546 N.pl3   1  UNL1       -0.3328
     28 H          -3.1819   57.6751   77.8103 H       1  UNL1        0.1468
     29 C          -4.9759   56.7645   77.6290 C.ar    1  UNL1        0.0431
     30 C          -5.7060   55.7005   78.2290 C.ar    1  UNL1        0.0045
     31 C          -7.1108   55.6999   78.1370 C.ar    1  UNL1        0.0561
     32 N          -7.8175   56.7344   77.6573 N.ar    1  UNL1       -0.2499
     33 C          -7.1557   57.7302   77.0908 C.ar    1  UNL1        0.0829
     34 C          -7.9349   58.7743   76.6345 C.ar    1  UNL1        0.0305
     35 C          -7.3581   59.8376   75.9627 C.ar    1  UNL1        0.0592
     36 CL         -8.3032   61.2101   75.5518 Cl      1  UNL1       -0.0822
     37 C          -6.0218   59.7821   75.6095 C.ar    1  UNL1        0.0115
     38 C          -5.2438   58.7145   76.0485 C.ar    1  UNL1        0.0036
     39 C          -5.7492   57.7415   76.9298 C.ar    1  UNL1        0.0305
     40 C          -7.9747   54.5479   78.5726 C.3     1  UNL1        0.0455
     41 C          -7.1782   53.2818   78.8267 C.3     1  UNL1        0.0066
     42 C          -5.9744   53.6245   79.6881 C.3     1  UNL1        0.0052
     43 C          -5.0199   54.5498   78.9294 C.3     1  UNL1        0.0288
@<TRIPOS>BOND
     1    22    23    3
     2    23    21    1
     3    21    20    1
     4    20    19    1
     5    19     5    1
     6     5     1    1
     7     5     6    1
     8     1     2   am
     9     1     4    1
    10     2     3    2
    11     2    24    1
    12    24    25    1
    13    25    26    1
    14    26    27    1
    15    27    29    1
    16    27    28    1
    17    29    30   ar
    18    29    39   ar
    19    30    31   ar
    20    30    43    1
    21    31    32   ar
    22    31    40    1
    23    32    33   ar
    24    33    34   ar
    25    33    39   ar
    26    34    35   ar
    27    35    36    1
    28    35    37   ar
    29    37    38   ar
    30    38    39   ar
    31    40    41    1
    32    41    42    1
    33    42    43    1
    34     6     7    2
    35     6     8   am
    36     8    10    1
    37     8     9    1
    38    10    11   ar
    39    10    18   ar
    40    11    12   ar
    41    12    13   ar
    42    12    17   ar
    43    13    14   ar
    44    14    15   ar
    45    15    16   ar
    46    16    17   ar
    47    17    18   ar
#	Name:			CHEMBL4635342
#	Creating user name:	trannguyen
#	Creation time:		Tue Feb  8 17:54:08 2022


#	Modifying user name:	trannguyen
#	Modification time:	Tue Feb  8 17:54:08 2022

@<TRIPOS>MOLECULE
CHEMBL4635342
 43 47 0 0 0
SMALL
GASTEIGER

@<TRIPOS>ATOM
      1 N          -5.8756   79.9624   73.4931 N.am    1  UNL1       -0.2976
      2 C          -5.9517   80.8747   72.4591 C.2     1  UNL1        0.2228
      3 O          -6.9358   81.5364   72.2422 O.2     1  UNL1       -0.2751
      4 H          -5.0518   79.3911   73.6063 H       1  UNL1        0.1498
      5 C          -6.9680   79.7605   74.4564 C.3     1  UNL1        0.1598
      6 C          -7.8628   78.6049   73.9410 C.2     1  UNL1        0.2463
      7 O          -9.0896   78.7579   73.8905 O.2     1  UNL1       -0.2729
      8 N          -7.1895   77.4266   73.6920 N.am    1  UNL1       -0.2628
      9 H          -6.1910   77.3507   73.8618 H       1  UNL1        0.1568
     10 C          -7.8501   76.2925   73.2761 C.ar    1  UNL1        0.1655
     11 N          -8.1441   75.9316   72.0549 N.ar    1  UNL1       -0.2239
     12 C          -8.7118   74.6702   72.0590 C.ar    1  UNL1        0.0892
     13 C          -9.0782   73.9307   70.9157 C.ar    1  UNL1        0.0197
     14 C          -9.6260   72.6524   71.0555 C.ar    1  UNL1        0.0016
     15 C          -9.8179   72.1064   72.3207 C.ar    1  UNL1        0.0006
     16 C          -9.4681   72.8214   73.4744 C.ar    1  UNL1        0.0081
     17 C          -8.9035   74.1022   73.3213 C.ar    1  UNL1        0.0497
     18 S          -8.3170   75.2122   74.5138 S.2     1  UNL1       -0.0514
     19 C          -6.4094   79.3726   75.8493 C.3     1  UNL1        0.0868
     20 S          -6.2851   80.7899   77.0093 S.3     1  UNL1       -0.1332
     21 C          -6.3243   79.8676   78.5815 C.3     1  UNL1        0.0835
     22 C          -3.8463   80.2605   78.7136 C.2     1  UNL1       -0.0040
     23 C          -4.9268   79.5197   78.9991 C.2     1  UNL1       -0.0145
     24 C          -4.6699   80.9577   71.6258 C.3     1  UNL1        0.0868
     25 C          -4.9672   81.1480   70.1376 C.3     1  UNL1        0.0307
     26 C          -5.6991   79.9354   69.5374 C.3     1  UNL1        0.0875
     27 N          -7.0368   80.3131   69.0860 N.pl3   1  UNL1       -0.3328
     28 H          -7.6036   80.8295   69.7527 H       1  UNL1        0.1468
     29 C          -7.7325   79.8224   67.9750 C.ar    1  UNL1        0.0431
     30 C          -8.7740   78.8709   68.1897 C.ar    1  UNL1        0.0045
     31 C          -9.4139   78.3458   67.0632 C.ar    1  UNL1        0.0561
     32 N          -9.2774   78.8648   65.8281 N.ar    1  UNL1       -0.2499
     33 C          -8.3647   79.8094   65.6236 C.ar    1  UNL1        0.0829
     34 C          -8.2906   80.3107   64.3339 C.ar    1  UNL1        0.0305
     35 C          -7.3074   81.2174   63.9664 C.ar    1  UNL1        0.0592
     36 CL         -7.2679   81.8459   62.3669 Cl      1  UNL1       -0.0822
     37 C          -6.3275   81.5696   64.8753 C.ar    1  UNL1        0.0115
     38 C          -6.3887   81.0527   66.1721 C.ar    1  UNL1        0.0036
     39 C          -7.4774   80.2551   66.6249 C.ar    1  UNL1        0.0305
     40 C         -10.2724   77.1094   67.1182 C.3     1  UNL1        0.0455
     41 C         -10.1330   76.3570   68.4331 C.3     1  UNL1        0.0066
     42 C         -10.3445   77.3434   69.5686 C.3     1  UNL1        0.0052
     43 C          -9.2283   78.4106   69.5689 C.3     1  UNL1        0.0288
@<TRIPOS>BOND
     1    22    23    2
     2    23    21    1
     3    21    20    1
     4    20    19    1
     5    19     5    1
     6     5     1    1
     7     5     6    1
     8     1     2   am
     9     1     4    1
    10     2     3    2
    11     2    24    1
    12    24    25    1
    13    25    26    1
    14    26    27    1
    15    27    29    1
    16    27    28    1
    17    29    30   ar
    18    29    39   ar
    19    30    31   ar
    20    30    43    1
    21    31    32   ar
    22    31    40    1
    23    32    33   ar
    24    33    34   ar
    25    33    39   ar
    26    34    35   ar
    27    35    36    1
    28    35    37   ar
    29    37    38   ar
    30    38    39   ar
    31    40    41    1
    32    41    42    1
    33    42    43    1
    34     6     7    2
    35     6     8   am
    36     8    10    1
    37     8     9    1
    38    10    11   ar
    39    10    18   ar
    40    11    12   ar
    41    12    13   ar
    42    12    17   ar
    43    13    14   ar
    44    14    15   ar
    45    15    16   ar
    46    16    17   ar
    47    17    18   ar
#	Name:			CHEMBL4635698
#	Creating user name:	trannguyen
#	Creation time:		Tue Feb  8 17:54:08 2022


#	Modifying user name:	trannguyen
#	Modification time:	Tue Feb  8 17:54:08 2022

@<TRIPOS>MOLECULE
CHEMBL4635698
 44 48 0 0 0
SMALL
GASTEIGER

@<TRIPOS>ATOM
      1 N           0.2054   60.9543   78.1524 N.am    1  UNL1       -0.2976
      2 C          -0.7750   61.5932   77.4132 C.2     1  UNL1        0.2228
      3 O          -1.5166   60.9981   76.6364 O.2     1  UNL1       -0.2751
      4 H           0.8999   61.5123   78.6369 H       1  UNL1        0.1498
      5 C           0.4789   59.4920   78.0148 C.3     1  UNL1        0.1598
      6 C           1.4473   59.2326   76.8233 C.2     1  UNL1        0.2463
      7 O           2.2726   60.0835   76.4677 O.2     1  UNL1       -0.2729
      8 N           1.4689   58.0294   76.1607 N.am    1  UNL1       -0.2628
      9 H           2.2607   57.8965   75.5481 H       1  UNL1        0.1568
     10 C           0.5078   57.0537   76.2041 C.ar    1  UNL1        0.1655
     11 N           0.6505   55.8346   76.6453 N.ar    1  UNL1       -0.2239
     12 C          -0.5171   55.1182   76.4279 C.ar    1  UNL1        0.0892
     13 C          -0.7081   53.7638   76.7620 C.ar    1  UNL1        0.0197
     14 C          -1.8460   53.0862   76.3213 C.ar    1  UNL1        0.0016
     15 C          -2.8684   53.7811   75.6873 C.ar    1  UNL1        0.0006
     16 C          -2.7667   55.1647   75.4637 C.ar    1  UNL1        0.0081
     17 C          -1.5557   55.8126   75.7986 C.ar    1  UNL1        0.0497
     18 S          -1.0354   57.4580   75.5847 S.2     1  UNL1       -0.0514
     19 C           1.0612   58.8501   79.2977 C.3     1  UNL1        0.0875
     20 S           2.8415   59.1623   79.5959 S.3     1  UNL1       -0.1238
     21 C           2.7159   60.5417   80.7571 C.3     1  UNL1        0.1342
     22 C           3.7520   62.7612   79.7487 C.1     1  UNL1       -0.0133
     23 C           3.2458   61.7945   80.2080 C.1     1  UNL1       -0.0660
     24 C          -0.8326   63.1086   77.5234 C.3     1  UNL1        0.0851
     25 C          -1.0816   63.5940   78.9415 C.3     1  UNL1        0.0096
     26 C          -2.5757   63.5791   79.3023 C.3     1  UNL1        0.0023
     27 C          -3.2387   62.2799   79.7727 C.3     1  UNL1        0.0212
     28 C          -4.4759   61.8874   78.9293 C.3     1  UNL1        0.0870
     29 N          -4.2221   60.9120   77.8570 N.pl3   1  UNL1       -0.3328
     30 H          -4.0394   61.3685   76.9635 H       1  UNL1        0.1468
     31 C          -4.9039   59.6839   77.6672 C.ar    1  UNL1        0.0431
     32 C          -6.1831   59.5461   77.0711 C.ar    1  UNL1        0.0045
     33 C          -6.8387   58.3200   77.1748 C.ar    1  UNL1        0.0561
     34 N          -6.2449   57.1925   77.6010 N.ar    1  UNL1       -0.2499
     35 C          -4.9988   57.2716   78.0529 C.ar    1  UNL1        0.0820
     36 C          -4.4720   56.0915   78.5449 C.ar    1  UNL1        0.0191
     37 C          -3.2032   56.0434   79.1071 C.ar    1  UNL1        0.0015
     38 C          -2.4334   57.1980   79.1416 C.ar    1  UNL1        0.0001
     39 C          -2.9634   58.4091   78.6805 C.ar    1  UNL1        0.0027
     40 C          -4.2627   58.4798   78.1187 C.ar    1  UNL1        0.0305
     41 C          -8.3326   58.2079   76.9974 C.3     1  UNL1        0.0455
     42 C          -9.0992   59.5246   76.9104 C.3     1  UNL1        0.0066
     43 C          -8.3827   60.4766   75.9764 C.3     1  UNL1        0.0052
     44 C          -6.9686   60.6863   76.5047 C.3     1  UNL1        0.0288
@<TRIPOS>BOND
     1    22    23    3
     2    23    21    1
     3    21    20    1
     4    20    19    1
     5    19     5    1
     6     5     1    1
     7     5     6    1
     8     1     2   am
     9     1     4    1
    10     2     3    2
    11     2    24    1
    12    24    25    1
    13    25    26    1
    14    26    27    1
    15    27    28    1
    16    28    29    1
    17    29    31    1
    18    29    30    1
    19    31    32   ar
    20    31    40   ar
    21    32    33   ar
    22    32    44    1
    23    33    34   ar
    24    33    41    1
    25    34    35   ar
    26    35    36   ar
    27    35    40   ar
    28    36    37   ar
    29    37    38   ar
    30    38    39   ar
    31    39    40   ar
    32    41    42    1
    33    42    43    1
    34    43    44    1
    35     6     7    2
    36     6     8   am
    37     8    10    1
    38     8     9    1
    39    10    11   ar
    40    10    18   ar
    41    11    12   ar
    42    12    13   ar
    43    12    17   ar
    44    13    14   ar
    45    14    15   ar
    46    15    16   ar
    47    16    17   ar
    48    17    18   ar
#	Name:			CHEMBL4637185
#	Creating user name:	trannguyen
#	Creation time:		Tue Feb  8 17:54:08 2022


#	Modifying user name:	trannguyen
#	Modification time:	Tue Feb  8 17:54:08 2022

@<TRIPOS>MOLECULE
CHEMBL4637185
 42 46 0 0 0
SMALL
GASTEIGER

@<TRIPOS>ATOM
      1 N           0.4459   60.6108   77.9334 N.am    1  UNL1       -0.2976
      2 C          -0.0376   61.8391   78.3475 C.2     1  UNL1        0.2228
      3 O           0.6916   62.7905   78.6002 O.2     1  UNL1       -0.2751
      4 H          -0.1728   59.8190   78.0610 H       1  UNL1        0.1498
      5 C           1.8884   60.3120   77.8749 C.3     1  UNL1        0.1598
      6 C           2.1402   58.8575   78.3515 C.2     1  UNL1        0.2463
      7 O           3.2010   58.5435   78.8874 O.2     1  UNL1       -0.2729
      8 N           1.0636   58.0326   78.0827 N.am    1  UNL1       -0.2628
      9 H           0.2785   58.3783   77.5500 H       1  UNL1        0.1568
     10 C           1.0435   56.6932   78.3545 C.ar    1  UNL1        0.1655
     11 N           1.4041   55.6772   77.6181 N.ar    1  UNL1       -0.2239
     12 C           1.1581   54.4980   78.3088 C.ar    1  UNL1        0.0892
     13 C           1.4121   53.1900   77.8446 C.ar    1  UNL1        0.0197
     14 C           1.0827   52.0885   78.6443 C.ar    1  UNL1        0.0016
     15 C           0.5076   52.2728   79.8979 C.ar    1  UNL1        0.0006
     16 C           0.2569   53.5576   80.3878 C.ar    1  UNL1        0.0081
     17 C           0.5960   54.6554   79.5790 C.ar    1  UNL1        0.0497
     18 S           0.4313   56.3377   79.9083 S.2     1  UNL1       -0.0514
     19 C           2.4062   60.5650   76.4423 C.3     1  UNL1        0.0875
     20 S           1.8126   59.3853   75.1767 S.3     1  UNL1       -0.1238
     21 C           3.0985   59.6451   73.9007 C.3     1  UNL1        0.1342
     22 C           2.1537   59.3443   71.4052 C.1     1  UNL1       -0.0133
     23 C           2.5655   59.4871   72.5447 C.1     1  UNL1       -0.0660
     24 C          -1.5649   61.9005   78.3201 C.3     1  UNL1        0.0868
     25 C          -2.2343   61.6782   79.6782 C.3     1  UNL1        0.0307
     26 C          -3.7405   61.9799   79.6347 C.3     1  UNL1        0.0875
     27 N          -4.5466   60.7886   79.3822 N.pl3   1  UNL1       -0.3328
     28 H          -4.7399   60.2255   80.2035 H       1  UNL1        0.1468
     29 C          -4.9930   60.2472   78.1727 C.ar    1  UNL1        0.0431
     30 C          -6.2322   60.7253   77.6461 C.ar    1  UNL1        0.0045
     31 C          -6.6832   60.2032   76.4296 C.ar    1  UNL1        0.0561
     32 N          -5.9243   59.4192   75.6411 N.ar    1  UNL1       -0.2499
     33 C          -4.7244   59.0372   76.0776 C.ar    1  UNL1        0.0820
     34 C          -3.9484   58.3110   75.1842 C.ar    1  UNL1        0.0191
     35 C          -2.6980   57.8064   75.5291 C.ar    1  UNL1        0.0015
     36 C          -2.2503   57.9587   76.8261 C.ar    1  UNL1        0.0001
     37 C          -3.0263   58.6781   77.7352 C.ar    1  UNL1        0.0027
     38 C          -4.2326   59.3332   77.3669 C.ar    1  UNL1        0.0305
     39 C          -8.0528   60.4973   75.8775 C.3     1  UNL1        0.0455
     40 C          -9.0070   61.0243   76.9381 C.3     1  UNL1        0.0066
     41 C          -8.3594   62.2114   77.6297 C.3     1  UNL1        0.0052
     42 C          -7.0481   61.8112   78.3299 C.3     1  UNL1        0.0288
@<TRIPOS>BOND
     1    22    23    3
     2    23    21    1
     3    21    20    1
     4    20    19    1
     5    19     5    1
     6     5     1    1
     7     5     6    1
     8     1     2   am
     9     1     4    1
    10     2     3    2
    11     2    24    1
    12    24    25    1
    13    25    26    1
    14    26    27    1
    15    27    29    1
    16    27    28    1
    17    29    30   ar
    18    29    38   ar
    19    30    31   ar
    20    30    42    1
    21    31    32   ar
    22    31    39    1
    23    32    33   ar
    24    33    34   ar
    25    33    38   ar
    26    34    35   ar
    27    35    36   ar
    28    36    37   ar
    29    37    38   ar
    30    39    40    1
    31    40    41    1
    32    41    42    1
    33     6     7    2
    34     6     8   am
    35     8    10    1
    36     8     9    1
    37    10    11   ar
    38    10    18   ar
    39    11    12   ar
    40    12    13   ar
    41    12    17   ar
    42    13    14   ar
    43    14    15   ar
    44    15    16   ar
    45    16    17   ar
    46    17    18   ar
#	Name:			CHEMBL4639503
#	Creating user name:	trannguyen
#	Creation time:		Tue Feb  8 17:54:08 2022


#	Modifying user name:	trannguyen
#	Modification time:	Tue Feb  8 17:54:08 2022

@<TRIPOS>MOLECULE
CHEMBL4639503
 33 35 0 0 0
SMALL
GASTEIGER

@<TRIPOS>ATOM
      1 N           3.0530   70.0755   68.2407 N.pl3   1  UNL1       -0.3328
      2 H           2.3300   70.6170   67.7764 H       1  UNL1        0.1468
      3 C           4.2912   70.0965   67.5954 C.ar    1  UNL1        0.0431
      4 C           5.5149   70.3421   68.2547 C.ar    1  UNL1        0.0045
      5 C           6.6899   70.3598   67.4849 C.ar    1  UNL1        0.0561
      6 N           6.7334   70.0762   66.1663 N.ar    1  UNL1       -0.2499
      7 C           5.5984   69.8004   65.5352 C.ar    1  UNL1        0.0829
      8 C           5.7047   69.4961   64.1857 C.ar    1  UNL1        0.0305
      9 C           4.5826   69.1825   63.4323 C.ar    1  UNL1        0.0592
     10 CL          4.7469   68.7882   61.7652 Cl      1  UNL1       -0.0822
     11 C           3.3282   69.2045   64.0211 C.ar    1  UNL1        0.0115
     12 C           3.2061   69.5463   65.3731 C.ar    1  UNL1        0.0036
     13 C           4.3394   69.8159   66.1814 C.ar    1  UNL1        0.0305
     14 C           8.0387   70.6664   68.0798 C.3     1  UNL1        0.0455
     15 C           7.9347   71.3943   69.4088 C.3     1  UNL1        0.0066
     16 C           7.0291   70.5929   70.3267 C.3     1  UNL1        0.0052
     17 C           5.6153   70.5421   69.7485 C.3     1  UNL1        0.0288
     18 C           2.6221   69.3525   69.4369 C.3     1  UNL1        0.0888
     19 C           2.2527   67.9148   69.0590 C.3     1  UNL1        0.0424
     20 C           1.2499   67.8384   67.9072 C.3     1  UNL1        0.0912
     21 C           1.1034   66.6199   65.7343 C.2     1  UNL1        0.2374
     22 O          -0.1131   66.4646   65.7927 O.2     1  UNL1       -0.2736
     23 N           1.8364   67.2695   66.7088 N.am    1  UNL1       -0.3032
     24 H           2.7941   67.4978   66.4506 H       1  UNL1        0.1495
     25 C           1.9478   66.0680   64.5670 C.3     1  UNL1        0.1392
     26 N           1.4616   64.7154   64.1660 N.3     1  UNL1       -0.3143
     27 H           1.9598   64.4825   63.3004 H       1  UNL1        0.1193
     28 H           0.4811   64.7902   63.8983 H       1  UNL1        0.1193
     29 C           3.4347   66.0545   64.9577 C.3     1  UNL1        0.0833
     30 S           4.4726   65.3909   63.5923 S.3     1  UNL1       -0.1241
     31 C           4.5569   63.6489   64.1074 C.3     1  UNL1        0.1342
     32 C           3.8408   63.2428   66.6494 C.1     1  UNL1       -0.0133
     33 C           4.1819   63.4424   65.5047 C.1     1  UNL1       -0.0660
@<TRIPOS>BOND
     1    32    33    3
     2    33    31    1
     3    31    30    1
     4    30    29    1
     5    29    25    1
     6    25    26    1
     7    25    21    1
     8    26    27    1
     9    26    28    1
    10    21    22    2
    11    21    23   am
    12    23    20    1
    13    23    24    1
    14    20    19    1
    15    19    18    1
    16    18     1    1
    17     1     3    1
    18     1     2    1
    19     3     4   ar
    20     3    13   ar
    21     4     5   ar
    22     4    17    1
    23     5     6   ar
    24     5    14    1
    25     6     7   ar
    26     7     8   ar
    27     7    13   ar
    28     8     9   ar
    29     9    10    1
    30     9    11   ar
    31    11    12   ar
    32    12    13   ar
    33    14    15    1
    34    15    16    1
    35    16    17    1
#	Name:			CHEMBL4639993
#	Creating user name:	trannguyen
#	Creation time:		Tue Feb  8 17:54:08 2022


#	Modifying user name:	trannguyen
#	Modification time:	Tue Feb  8 17:54:08 2022

@<TRIPOS>MOLECULE
CHEMBL4639993
 33 35 0 0 0
SMALL
GASTEIGER

@<TRIPOS>ATOM
      1 N          -7.7149   59.5547   75.5145 N.pl3   1  UNL1       -0.3328
      2 H          -8.1063   59.1313   74.6754 H       1  UNL1        0.1468
      3 C          -7.0715   58.6064   76.3226 C.ar    1  UNL1        0.0431
      4 C          -7.7185   57.6980   77.1923 C.ar    1  UNL1        0.0045
      5 C          -6.9356   56.9536   78.0894 C.ar    1  UNL1        0.0561
      6 N          -5.5881   56.9201   78.0352 N.ar    1  UNL1       -0.2499
      7 C          -4.9689   57.6170   77.0822 C.ar    1  UNL1        0.0829
      8 C          -3.6044   57.4145   76.9522 C.ar    1  UNL1        0.0305
      9 C          -2.8709   58.0544   75.9609 C.ar    1  UNL1        0.0592
     10 CL         -1.2035   57.6809   75.7567 Cl      1  UNL1       -0.0822
     11 C          -3.4861   58.9716   75.1231 C.ar    1  UNL1        0.0115
     12 C          -4.8565   59.2109   75.2618 C.ar    1  UNL1        0.0036
     13 C          -5.6432   58.5033   76.2114 C.ar    1  UNL1        0.0305
     14 C          -7.5415   56.0819   79.1688 C.3     1  UNL1        0.0455
     15 C          -9.0574   56.1974   79.2896 C.3     1  UNL1        0.0066
     16 C          -9.6654   56.1785   77.8998 C.3     1  UNL1        0.0052
     17 C          -9.2047   57.4414   77.1654 C.3     1  UNL1        0.0288
     18 C          -8.3999   60.7903   75.9010 C.3     1  UNL1        0.0888
     19 C          -7.5325   62.0382   75.7041 C.3     1  UNL1        0.0424
     20 C          -7.4109   62.8590   76.9994 C.3     1  UNL1        0.0912
     21 C          -5.8266   64.3493   78.2362 C.2     1  UNL1        0.2374
     22 O          -6.4917   64.3092   79.2897 O.2     1  UNL1       -0.2736
     23 N          -6.1393   63.5852   77.1229 N.am    1  UNL1       -0.3032
     24 H          -5.5916   63.7365   76.2863 H       1  UNL1        0.1495
     25 C          -4.5735   65.2419   78.0781 C.3     1  UNL1        0.1392
     26 N          -4.1582   65.2445   76.6503 N.3     1  UNL1       -0.3143
     27 H          -3.2104   64.8630   76.5859 H       1  UNL1        0.1193
     28 H          -4.7524   64.6228   76.1076 H       1  UNL1        0.1193
     29 C          -3.4391   64.8261   79.0595 C.3     1  UNL1        0.0827
     30 S          -2.2030   63.6818   78.3075 S.3     1  UNL1       -0.1335
     31 C          -2.9683   62.0753   78.7206 C.3     1  UNL1        0.0835
     32 C          -1.1698   61.0825   77.2269 C.2     1  UNL1       -0.0040
     33 C          -2.1631   60.9549   78.1198 C.2     1  UNL1       -0.0145
@<TRIPOS>BOND
     1    32    33    2
     2    33    31    1
     3    31    30    1
     4    30    29    1
     5    29    25    1
     6    25    26    1
     7    25    21    1
     8    26    27    1
     9    26    28    1
    10    21    22    2
    11    21    23   am
    12    23    20    1
    13    23    24    1
    14    20    19    1
    15    19    18    1
    16    18     1    1
    17     1     3    1
    18     1     2    1
    19     3     4   ar
    20     3    13   ar
    21     4     5   ar
    22     4    17    1
    23     5     6   ar
    24     5    14    1
    25     6     7   ar
    26     7     8   ar
    27     7    13   ar
    28     8     9   ar
    29     9    10    1
    30     9    11   ar
    31    11    12   ar
    32    12    13   ar
    33    14    15    1
    34    15    16    1
    35    16    17    1
#	Name:			CHEMBL4640059
#	Creating user name:	trannguyen
#	Creation time:		Tue Feb  8 17:54:08 2022


#	Modifying user name:	trannguyen
#	Modification time:	Tue Feb  8 17:54:08 2022

@<TRIPOS>MOLECULE
CHEMBL4640059
 45 49 0 0 0
SMALL
GASTEIGER

@<TRIPOS>ATOM
      1 N          -1.1402   56.6975   76.0591 N.am    1  UNL1       -0.2976
      2 C          -1.7470   57.8974   76.3374 C.2     1  UNL1        0.2228
      3 O          -1.3677   58.6584   77.2254 O.2     1  UNL1       -0.2751
      4 H          -1.3277   56.2813   75.1540 H       1  UNL1        0.1498
      5 C           0.0308   56.1795   76.7869 C.3     1  UNL1        0.1598
      6 C           1.1600   57.2197   76.9942 C.2     1  UNL1        0.2463
      7 O           1.8755   57.5756   76.0533 O.2     1  UNL1       -0.2729
      8 N           1.1659   57.7978   78.2470 N.am    1  UNL1       -0.2628
      9 H           0.4862   57.5148   78.9520 H       1  UNL1        0.1568
     10 C           2.1497   58.6505   78.6378 C.ar    1  UNL1        0.1655
     11 N           3.2892   58.3473   79.1923 N.ar    1  UNL1       -0.2239
     12 C           3.9814   59.4924   79.4717 C.ar    1  UNL1        0.0892
     13 C           5.2458   59.5362   80.0933 C.ar    1  UNL1        0.0197
     14 C           5.8449   60.7670   80.3344 C.ar    1  UNL1        0.0016
     15 C           5.2082   61.9477   79.9529 C.ar    1  UNL1        0.0006
     16 C           3.9649   61.9302   79.3208 C.ar    1  UNL1        0.0081
     17 C           3.3603   60.6822   79.0976 C.ar    1  UNL1        0.0497
     18 S           1.8291   60.3041   78.3902 S.2     1  UNL1       -0.0514
     19 C          -0.3543   55.5289   78.1455 C.3     1  UNL1        0.0868
     20 S          -1.7917   54.3714   78.1561 S.3     1  UNL1       -0.1332
     21 C          -2.6332   55.0187   79.6373 C.3     1  UNL1        0.0835
     22 C          -3.1327   57.4548   80.0613 C.2     1  UNL1       -0.0040
     23 C          -3.3277   56.3218   79.3712 C.2     1  UNL1       -0.0145
     24 C          -2.9467   58.2189   75.4814 C.3     1  UNL1        0.0851
     25 C          -4.1383   57.3736   75.9153 C.3     1  UNL1        0.0096
     26 C          -5.2655   58.1867   76.5641 C.3     1  UNL1        0.0023
     27 C          -5.6032   59.4579   75.7846 C.3     1  UNL1        0.0212
     28 C          -6.7925   60.2529   76.3284 C.3     1  UNL1        0.0870
     29 N          -6.5752   60.6713   77.6998 N.pl3   1  UNL1       -0.3328
     30 H          -7.0584   60.1419   78.4183 H       1  UNL1        0.1468
     31 C          -6.1864   61.9580   78.0927 C.ar    1  UNL1        0.0431
     32 C          -4.8764   62.0939   78.6123 C.ar    1  UNL1        0.0045
     33 C          -4.4345   63.3659   78.9819 C.ar    1  UNL1        0.0561
     34 N          -5.1532   64.4863   78.7674 N.ar    1  UNL1       -0.2499
     35 C          -6.4144   64.3664   78.3555 C.ar    1  UNL1        0.0829
     36 C          -7.1557   65.5378   78.3216 C.ar    1  UNL1        0.0305
     37 C          -8.5272   65.5172   78.1077 C.ar    1  UNL1        0.0592
     38 CL         -9.4374   66.9734   78.1886 Cl      1  UNL1       -0.0822
     39 C          -9.1728   64.3138   77.8966 C.ar    1  UNL1        0.0115
     40 C          -8.4237   63.1367   77.8622 C.ar    1  UNL1        0.0036
     41 C          -7.0187   63.1217   78.0597 C.ar    1  UNL1        0.0305
     42 C          -3.1366   63.5778   79.7163 C.3     1  UNL1        0.0455
     43 C          -2.6463   62.3046   80.3952 C.3     1  UNL1        0.0066
     44 C          -2.6011   61.1824   79.3704 C.3     1  UNL1        0.0052
     45 C          -4.0065   60.8768   78.8510 C.3     1  UNL1        0.0288
@<TRIPOS>BOND
     1    22    23    2
     2    23    21    1
     3    21    20    1
     4    20    19    1
     5    19     5    1
     6     5     1    1
     7     5     6    1
     8     1     2   am
     9     1     4    1
    10     2     3    2
    11     2    24    1
    12    24    25    1
    13    25    26    1
    14    26    27    1
    15    27    28    1
    16    28    29    1
    17    29    31    1
    18    29    30    1
    19    31    32   ar
    20    31    41   ar
    21    32    33   ar
    22    32    45    1
    23    33    34   ar
    24    33    42    1
    25    34    35   ar
    26    35    36   ar
    27    35    41   ar
    28    36    37   ar
    29    37    38    1
    30    37    39   ar
    31    39    40   ar
    32    40    41   ar
    33    42    43    1
    34    43    44    1
    35    44    45    1
    36     6     7    2
    37     6     8   am
    38     8    10    1
    39     8     9    1
    40    10    11   ar
    41    10    18   ar
    42    11    12   ar
    43    12    13   ar
    44    12    17   ar
    45    13    14   ar
    46    14    15   ar
    47    15    16   ar
    48    16    17   ar
    49    17    18   ar
#	Name:			CHEMBL4641182
#	Creating user name:	trannguyen
#	Creation time:		Tue Feb  8 17:54:08 2022


#	Modifying user name:	trannguyen
#	Modification time:	Tue Feb  8 17:54:08 2022

@<TRIPOS>MOLECULE
CHEMBL4641182
 45 49 0 0 0
SMALL
GASTEIGER

@<TRIPOS>ATOM
      1 N           0.5035   61.5633   76.2630 N.am    1  UNL1       -0.2976
      2 C          -0.5987   62.2433   76.7437 C.2     1  UNL1        0.2228
      3 O          -1.1730   61.8982   77.7746 O.2     1  UNL1       -0.2751
      4 H           1.1252   62.0064   75.5890 H       1  UNL1        0.1498
      5 C           1.0685   60.4317   77.0066 C.3     1  UNL1        0.1598
      6 C           0.6296   59.0689   76.4482 C.2     1  UNL1        0.2463
      7 O           0.8888   58.7609   75.2851 O.2     1  UNL1       -0.2729
      8 N           0.0057   58.2591   77.3801 N.am    1  UNL1       -0.2628
      9 H          -0.1572   58.5903   78.3553 H       1  UNL1        0.1568
     10 C          -0.4706   57.0311   77.0200 C.ar    1  UNL1        0.1655
     11 N           0.1227   55.8900   77.2226 N.ar    1  UNL1       -0.2239
     12 C          -0.6525   54.8711   76.7344 C.ar    1  UNL1        0.0892
     13 C          -0.3228   53.5093   76.8294 C.ar    1  UNL1        0.0197
     14 C          -1.1687   52.5580   76.2670 C.ar    1  UNL1        0.0016
     15 C          -2.3326   52.9563   75.6136 C.ar    1  UNL1        0.0006
     16 C          -2.6870   54.3104   75.5102 C.ar    1  UNL1        0.0081
     17 C          -1.8360   55.2594   76.1005 C.ar    1  UNL1        0.0497
     18 S          -1.9876   56.9840   76.2387 S.2     1  UNL1       -0.0514
     19 C           2.6012   60.4892   77.1516 C.3     1  UNL1        0.0875
     20 S           3.2427   60.5643   78.8746 S.3     1  UNL1       -0.1238
     21 C           1.6722   60.8925   79.7592 C.3     1  UNL1        0.1342
     22 C           1.2819   63.4788   80.3022 C.1     1  UNL1       -0.0133
     23 C           1.4844   62.3023   80.0409 C.1     1  UNL1       -0.0660
     24 C          -1.1361   63.3900   75.8883 C.3     1  UNL1        0.0851
     25 C          -1.4868   64.6283   76.7139 C.3     1  UNL1        0.0096
     26 C          -2.9622   64.8678   77.0038 C.3     1  UNL1        0.0023
     27 C          -3.3063   64.7440   78.4739 C.3     1  UNL1        0.0212
     28 C          -4.5623   63.9109   78.6681 C.3     1  UNL1        0.0870
     29 N          -5.4922   63.9870   77.5277 N.pl3   1  UNL1       -0.3328
     30 H          -5.5353   64.9299   77.1402 H       1  UNL1        0.1468
     31 C          -6.7997   63.4487   77.5640 C.ar    1  UNL1        0.0431
     32 C          -7.8836   64.3280   77.8688 C.ar    1  UNL1        0.0045
     33 C          -9.1660   63.7729   77.9345 C.ar    1  UNL1        0.0561
     34 N          -9.4338   62.4932   77.6058 N.ar    1  UNL1       -0.2499
     35 C          -8.4255   61.6569   77.3761 C.ar    1  UNL1        0.0829
     36 C          -8.7726   60.3366   77.1389 C.ar    1  UNL1        0.0305
     37 C          -7.8114   59.3450   76.9916 C.ar    1  UNL1        0.0592
     38 CL         -8.2809   57.7107   76.7488 Cl      1  UNL1       -0.0822
     39 C          -6.4764   59.6586   77.1307 C.ar    1  UNL1        0.0115
     40 C          -6.1294   60.9755   77.4197 C.ar    1  UNL1        0.0036
     41 C          -7.0744   62.0417   77.4379 C.ar    1  UNL1        0.0305
     42 C         -10.3744   64.5394   78.4039 C.3     1  UNL1        0.0455
     43 C         -10.0172   65.7978   79.1772 C.3     1  UNL1        0.0066
     44 C          -9.0186   66.5985   78.3568 C.3     1  UNL1        0.0052
     45 C          -7.7033   65.8088   78.1785 C.3     1  UNL1        0.0288
@<TRIPOS>BOND
     1    22    23    3
     2    23    21    1
     3    21    20    1
     4    20    19    1
     5    19     5    1
     6     5     1    1
     7     5     6    1
     8     1     2   am
     9     1     4    1
    10     2     3    2
    11     2    24    1
    12    24    25    1
    13    25    26    1
    14    26    27    1
    15    27    28    1
    16    28    29    1
    17    29    31    1
    18    29    30    1
    19    31    32   ar
    20    31    41   ar
    21    32    33   ar
    22    32    45    1
    23    33    34   ar
    24    33    42    1
    25    34    35   ar
    26    35    36   ar
    27    35    41   ar
    28    36    37   ar
    29    37    38    1
    30    37    39   ar
    31    39    40   ar
    32    40    41   ar
    33    42    43    1
    34    43    44    1
    35    44    45    1
    36     6     7    2
    37     6     8   am
    38     8    10    1
    39     8     9    1
    40    10    11   ar
    41    10    18   ar
    42    11    12   ar
    43    12    13   ar
    44    12    17   ar
    45    13    14   ar
    46    14    15   ar
    47    15    16   ar
    48    16    17   ar
    49    17    18   ar
#	Name:			CHEMBL4642573
#	Creating user name:	trannguyen
#	Creation time:		Tue Feb  8 17:54:08 2022


#	Modifying user name:	trannguyen
#	Modification time:	Tue Feb  8 17:54:08 2022

@<TRIPOS>MOLECULE
CHEMBL4642573
 44 48 0 0 0
SMALL
GASTEIGER

@<TRIPOS>ATOM
      1 N           1.7991   68.1354   68.7575 N.am    1  UNL1       -0.2976
      2 C           1.7157   66.8618   69.2844 C.2     1  UNL1        0.2228
      3 O           2.1162   65.8685   68.7197 O.2     1  UNL1       -0.2751
      4 H           1.6262   68.9113   69.3826 H       1  UNL1        0.1498
      5 C           2.5231   68.4941   67.5195 C.3     1  UNL1        0.1598
      6 C           1.6497   68.9317   66.3049 C.2     1  UNL1        0.2463
      7 O           1.0289   70.0041   66.3212 O.2     1  UNL1       -0.2729
      8 N           1.6019   68.2142   65.1458 N.am    1  UNL1       -0.2628
      9 H           0.9210   68.5304   64.4716 H       1  UNL1        0.1568
     10 C           2.3291   67.0997   64.8622 C.ar    1  UNL1        0.1655
     11 N           2.2491   65.9283   65.4336 N.ar    1  UNL1       -0.2239
     12 C           3.2050   65.0914   64.9009 C.ar    1  UNL1        0.0892
     13 C           3.4632   63.7786   65.3352 C.ar    1  UNL1        0.0197
     14 C           4.4977   63.0483   64.7498 C.ar    1  UNL1        0.0016
     15 C           5.2441   63.5976   63.7119 C.ar    1  UNL1        0.0006
     16 C           4.9902   64.8938   63.2443 C.ar    1  UNL1        0.0081
     17 C           3.9766   65.6366   63.8716 C.ar    1  UNL1        0.0497
     18 S           3.4769   67.2709   63.6164 S.2     1  UNL1       -0.0514
     19 C           3.6651   69.5174   67.6940 C.3     1  UNL1        0.0868
     20 S           4.7337   69.7773   66.2260 S.3     1  UNL1       -0.1332
     21 C           6.2564   70.1797   67.1366 C.3     1  UNL1        0.0835
     22 C           6.8147   70.7495   69.5024 C.2     1  UNL1       -0.0040
     23 C           5.9520   70.7720   68.4765 C.2     1  UNL1       -0.0145
     24 C           1.1051   66.8022   70.6878 C.3     1  UNL1        0.0851
     25 C           1.5231   65.5005   71.3604 C.3     1  UNL1        0.0096
     26 C           0.5381   64.9908   72.4129 C.3     1  UNL1        0.0023
     27 C           1.1920   64.6040   73.7668 C.3     1  UNL1        0.0212
     28 C           0.1815   64.8449   74.8802 C.3     1  UNL1        0.0870
     29 N          -0.7153   63.7481   75.2545 N.pl3   1  UNL1       -0.3328
     30 H          -0.4998   62.8900   74.7451 H       1  UNL1        0.1468
     31 C          -0.8986   63.4072   76.6449 C.ar    1  UNL1        0.0431
     32 C          -1.8446   64.0249   77.5170 C.ar    1  UNL1        0.0045
     33 C          -1.8063   63.6878   78.8789 C.ar    1  UNL1        0.0561
     34 N          -1.0092   62.7301   79.3918 N.ar    1  UNL1       -0.2499
     35 C          -0.1973   62.0626   78.5760 C.ar    1  UNL1        0.0820
     36 C           0.5553   61.0562   79.1678 C.ar    1  UNL1        0.0191
     37 C           1.4553   60.2838   78.4418 C.ar    1  UNL1        0.0015
     38 C           1.5866   60.5109   77.0809 C.ar    1  UNL1        0.0001
     39 C           0.8252   61.5168   76.4623 C.ar    1  UNL1        0.0027
     40 C          -0.0812   62.3395   77.1922 C.ar    1  UNL1        0.0305
     41 C          -2.6901   64.3674   79.8980 C.3     1  UNL1        0.0455
     42 C          -3.1785   65.7351   79.4438 C.3     1  UNL1        0.0066
     43 C          -3.8670   65.5626   78.1120 C.3     1  UNL1        0.0052
     44 C          -2.8608   65.0603   77.0926 C.3     1  UNL1        0.0288
@<TRIPOS>BOND
     1    22    23    2
     2    23    21    1
     3    21    20    1
     4    20    19    1
     5    19     5    1
     6     5     1    1
     7     5     6    1
     8     1     2   am
     9     1     4    1
    10     2     3    2
    11     2    24    1
    12    24    25    1
    13    25    26    1
    14    26    27    1
    15    27    28    1
    16    28    29    1
    17    29    31    1
    18    29    30    1
    19    31    32   ar
    20    31    40   ar
    21    32    33   ar
    22    32    44    1
    23    33    34   ar
    24    33    41    1
    25    34    35   ar
    26    35    36   ar
    27    35    40   ar
    28    36    37   ar
    29    37    38   ar
    30    38    39   ar
    31    39    40   ar
    32    41    42    1
    33    42    43    1
    34    43    44    1
    35     6     7    2
    36     6     8   am
    37     8    10    1
    38     8     9    1
    39    10    11   ar
    40    10    18   ar
    41    11    12   ar
    42    12    13   ar
    43    12    17   ar
    44    13    14   ar
    45    14    15   ar
    46    15    16   ar
    47    16    17   ar
    48    17    18   ar
#	Name:			CHEMBL4648566
#	Creating user name:	trannguyen
#	Creation time:		Tue Feb  8 17:54:08 2022


#	Modifying user name:	trannguyen
#	Modification time:	Tue Feb  8 17:54:08 2022

@<TRIPOS>MOLECULE
CHEMBL4648566
 42 46 0 0 0
SMALL
GASTEIGER

@<TRIPOS>ATOM
      1 N          -2.2495   57.2495   78.4634 N.am    1  UNL1       -0.2976
      2 C          -2.7459   58.0815   77.4898 C.2     1  UNL1        0.2228
      3 O          -2.0349   58.5140   76.5839 O.2     1  UNL1       -0.2751
      4 H          -2.8887   56.9126   79.1604 H       1  UNL1        0.1498
      5 C          -0.8628   56.6977   78.4185 C.3     1  UNL1        0.1598
      6 C           0.1966   57.6577   79.0843 C.2     1  UNL1        0.2463
      7 O           0.2160   57.8320   80.3261 O.2     1  UNL1       -0.2729
      8 N           1.1678   58.1428   78.2375 N.am    1  UNL1       -0.2628
      9 H           1.1337   57.9278   77.2399 H       1  UNL1        0.1568
     10 C           2.2820   58.8444   78.6874 C.ar    1  UNL1        0.1655
     11 N           3.3730   58.3863   79.2547 N.ar    1  UNL1       -0.2239
     12 C           4.2170   59.4364   79.6002 C.ar    1  UNL1        0.0892
     13 C           5.4421   59.3302   80.2996 C.ar    1  UNL1        0.0197
     14 C           6.1783   60.4787   80.6195 C.ar    1  UNL1        0.0016
     15 C           5.7238   61.7323   80.2271 C.ar    1  UNL1        0.0006
     16 C           4.5260   61.8667   79.5110 C.ar    1  UNL1        0.0081
     17 C           3.7733   60.7071   79.2259 C.ar    1  UNL1        0.0497
     18 S           2.2321   60.5389   78.4502 S.2     1  UNL1       -0.0514
     19 C          -0.8652   55.2066   78.9274 C.3     1  UNL1        0.0868
     20 S          -1.1425   53.9380   77.6228 S.3     1  UNL1       -0.1332
     21 C          -0.4875   54.7684   76.1354 C.3     1  UNL1        0.0835
     22 C          -2.8980   55.1218   75.4664 C.2     1  UNL1       -0.0040
     23 C          -1.6133   54.9087   75.1445 C.2     1  UNL1       -0.0145
     24 C          -4.2147   58.4452   77.6356 C.3     1  UNL1        0.0868
     25 C          -4.6436   59.6481   76.7986 C.3     1  UNL1        0.0307
     26 C          -5.3239   59.2435   75.4887 C.3     1  UNL1        0.0875
     27 N          -6.7550   59.5495   75.4519 N.pl3   1  UNL1       -0.3328
     28 H          -6.9472   60.3773   74.8865 H       1  UNL1        0.1468
     29 C          -7.6216   59.5629   76.5651 C.ar    1  UNL1        0.0431
     30 C          -7.9524   60.8473   77.0792 C.ar    1  UNL1        0.0045
     31 C          -8.7528   60.9310   78.2206 C.ar    1  UNL1        0.0561
     32 N          -9.2683   59.8451   78.8289 N.ar    1  UNL1       -0.2499
     33 C          -8.9216   58.6325   78.3935 C.ar    1  UNL1        0.0820
     34 C          -9.4306   57.5602   79.1137 C.ar    1  UNL1        0.0191
     35 C          -9.1038   56.2415   78.8113 C.ar    1  UNL1        0.0015
     36 C          -8.2145   55.9898   77.7852 C.ar    1  UNL1        0.0001
     37 C          -7.6821   57.0586   77.0610 C.ar    1  UNL1        0.0027
     38 C          -8.0590   58.4095   77.2947 C.ar    1  UNL1        0.0305
     39 C          -9.1433   62.2459   78.8456 C.3     1  UNL1        0.0455
     40 C          -8.2830   63.4197   78.3968 C.3     1  UNL1        0.0066
     41 C          -8.1183   63.3895   76.8856 C.3     1  UNL1        0.0052
     42 C          -7.3986   62.1107   76.4522 C.3     1  UNL1        0.0288
@<TRIPOS>BOND
     1    22    23    2
     2    23    21    1
     3    21    20    1
     4    20    19    1
     5    19     5    1
     6     5     1    1
     7     5     6    1
     8     1     2   am
     9     1     4    1
    10     2     3    2
    11     2    24    1
    12    24    25    1
    13    25    26    1
    14    26    27    1
    15    27    29    1
    16    27    28    1
    17    29    30   ar
    18    29    38   ar
    19    30    31   ar
    20    30    42    1
    21    31    32   ar
    22    31    39    1
    23    32    33   ar
    24    33    34   ar
    25    33    38   ar
    26    34    35   ar
    27    35    36   ar
    28    36    37   ar
    29    37    38   ar
    30    39    40    1
    31    40    41    1
    32    41    42    1
    33     6     7    2
    34     6     8   am
    35     8    10    1
    36     8     9    1
    37    10    11   ar
    38    10    18   ar
    39    11    12   ar
    40    12    13   ar
    41    12    17   ar
    42    13    14   ar
    43    14    15   ar
    44    15    16   ar
    45    16    17   ar
    46    17    18   ar
#	Name:			CHEMBL481
#	Creating user name:	trannguyen
#	Creation time:		Tue Feb  8 17:54:08 2022


#	Modifying user name:	trannguyen
#	Modification time:	Tue Feb  8 17:54:08 2022

@<TRIPOS>MOLECULE
CHEMBL481
 44 50 0 0 0
SMALL
GASTEIGER

@<TRIPOS>ATOM
      1 C          -9.5898   75.3050   72.0544 C.ar    1  UNL1       -0.0213
      2 C          -9.1435   75.3008   73.3724 C.ar    1  UNL1        0.0157
      3 C          -8.6568   76.4827   73.9256 C.ar    1  UNL1        0.0946
      4 N          -8.6015   77.6738   73.3353 N.ar    1  UNL1       -0.2442
      5 C          -9.0690   77.7102   72.0887 C.ar    1  UNL1        0.0812
      6 C          -9.0792   78.9579   71.4966 C.ar    1  UNL1        0.0222
      7 C          -9.5778   79.1474   70.2173 C.ar    1  UNL1        0.0392
      8 C         -10.0123   78.0533   69.4994 C.ar    1  UNL1        0.1501
      9 C         -10.0245   76.7709   70.0611 C.ar    1  UNL1        0.0388
     10 C          -9.5692   76.5670   71.3817 C.ar    1  UNL1        0.0165
     11 C          -8.3049   76.2370   75.3125 C.ar    1  UNL1        0.0799
     12 C          -7.8089   77.0654   76.2342 C.ar    1  UNL1        0.0172
     13 C          -7.6320   76.5761   77.5946 C.ar    1  UNL1        0.0175
     14 C          -7.9297   75.3000   77.8973 C.ar    1  UNL1        0.0762
     15 C          -8.4316   74.3614   76.8398 C.ar    1  UNL1        0.2604
     16 O          -8.6898   73.1916   77.1024 O.2     1  UNL1       -0.2672
     17 N          -8.5948   74.9231   75.6012 N.ar    1  UNL1       -0.2900
     18 C          -9.0952   74.2171   74.4143 C.3     1  UNL1        0.1370
     19 C          -7.8330   74.7382   79.2691 C.3     1  UNL1        0.2396
     20 O          -7.3814   75.6633   80.2792 O.3     1  UNL1       -0.4415
     21 C          -6.7685   76.8252   79.9674 C.2     1  UNL1        0.3455
     22 O          -5.9801   77.3541   80.7525 O.2     1  UNL1       -0.2471
     23 C          -7.1689   77.5338   78.6547 C.3     1  UNL1        0.1961
     24 O          -5.9894   78.1933   78.1569 O.3     1  UNL1       -0.3728
     25 H          -5.5176   78.5376   78.9420 H       1  UNL1        0.2114
     26 C          -8.9540   73.0169   71.0939 C.3     1  UNL1        0.0050
     27 C         -10.0571   74.0228   71.4003 C.3     1  UNL1        0.0262
     28 C          -8.2095   78.6342   78.9633 C.3     1  UNL1        0.0422
     29 C          -7.7832   80.0486   78.5890 C.3     1  UNL1        0.0034
     30 O         -10.5496   78.1650   68.2069 O.3     1  UNL1       -0.4101
     31 C          -9.7429   78.0329   67.0623 C.2     1  UNL1        0.4094
     32 O          -9.4509   76.9851   66.5229 O.2     1  UNL1       -0.2258
     33 N          -9.3222   79.2766   66.6088 N.am    1  UNL1       -0.2456
     34 C          -8.5029   79.3084   65.4067 C.3     1  UNL1        0.0981
     35 C          -7.9643   80.6776   65.0102 C.3     1  UNL1        0.0376
     36 C          -7.7571   81.6233   66.2064 C.3     1  UNL1        0.0609
     37 C          -9.1620   81.7873   66.8099 C.3     1  UNL1        0.0376
     38 C          -9.7625   80.4786   67.2852 C.3     1  UNL1        0.0981
     39 N          -6.7118   81.1921   67.1796 N.3     1  UNL1       -0.2738
     40 C          -7.0328   81.6678   68.5419 C.3     1  UNL1        0.0720
     41 C          -5.9667   81.3192   69.5812 C.3     1  UNL1        0.0174
     42 C          -4.6044   81.8458   69.1671 C.3     1  UNL1        0.0029
     43 C          -4.2683   81.3273   67.7791 C.3     1  UNL1        0.0174
     44 C          -5.3717   81.6684   66.7727 C.3     1  UNL1        0.0720
@<TRIPOS>BOND
     1    26    27    1
     2    27     1    1
     3     1     2   ar
     4     1    10   ar
     5     2     3   ar
     6     2    18    1
     7     3     4   ar
     8     3    11    1
     9     4     5   ar
    10     5     6   ar
    11     5    10   ar
    12     6     7   ar
    13     7     8   ar
    14     8    30    1
    15     8     9   ar
    16    30    31    1
    17    31    32    2
    18    31    33   am
    19    33    34    1
    20    33    38    1
    21    34    35    1
    22    35    36    1
    23    36    39    1
    24    36    37    1
    25    39    40    1
    26    39    44    1
    27    40    41    1
    28    41    42    1
    29    42    43    1
    30    43    44    1
    31    37    38    1
    32     9    10   ar
    33    11    12   ar
    34    11    17   ar
    35    12    13   ar
    36    13    14   ar
    37    13    23    1
    38    14    15   ar
    39    14    19    1
    40    15    16    2
    41    15    17   ar
    42    17    18    1
    43    19    20    1
    44    20    21    1
    45    21    22    2
    46    21    23    1
    47    23    28    1
    48    23    24    1
    49    24    25    1
    50    28    29    1
#	Name:			CHEMBL483090
#	Creating user name:	trannguyen
#	Creation time:		Tue Feb  8 17:54:08 2022


#	Modifying user name:	trannguyen
#	Modification time:	Tue Feb  8 17:54:08 2022

@<TRIPOS>MOLECULE
CHEMBL483090
 38 41 0 0 0
SMALL
GASTEIGER

@<TRIPOS>ATOM
      1 C          -4.0746   58.5820   75.6641 C.3     1  UNL1        0.0000
      2 C          -4.5371   57.2341   76.2526 C.3     1  UNL1        0.0000
      3 C          -4.9282   57.4377   77.7194 C.3     1  UNL1        0.0014
      4 C          -5.6086   56.2758   78.4492 C.3     1  UNL1        0.0171
      5 C          -4.8546   54.9311   78.4142 C.3     1  UNL1        0.0688
      6 N          -3.4854   54.9777   78.9217 N.3     1  UNL1       -0.2951
      7 H          -3.4700   54.6058   79.8708 H       1  UNL1        0.1235
      8 O           2.2263   57.0794   77.0306 O.2     1  UNL1       -0.2672
      9 C           1.2089   56.4142   77.2601 C.ar    1  UNL1        0.2575
     10 C           0.9210   55.9126   78.6154 C.ar    1  UNL1        0.0603
     11 C          -0.2138   55.2323   78.8238 C.ar    1  UNL1        0.0030
     12 C          -1.1925   55.0142   77.7689 C.ar    1  UNL1        0.0037
     13 C          -0.8535   55.3775   76.5164 C.ar    1  UNL1        0.0333
     14 N           0.3097   56.0754   76.2917 N.ar    1  UNL1       -0.3248
     15 H           0.5495   56.3792   75.3580 H       1  UNL1        0.1686
     16 C          -1.6509   54.9924   75.3077 C.3     1  UNL1        0.0434
     17 C          -2.3804   53.6758   75.5561 C.3     1  UNL1        0.0079
     18 C          -3.2145   53.7430   76.8378 C.3     1  UNL1        0.0207
     19 C          -2.4664   54.2482   78.1091 C.3     1  UNL1        0.0779
     20 C          -2.5676   58.7894   75.7978 C.3     1  UNL1        0.0000
     21 C          -2.1960   59.6142   77.0390 C.3     1  UNL1        0.0000
     22 C          -1.4603   58.7346   78.0528 C.3     1  UNL1        0.0014
     23 C          -1.7663   59.1133   79.5059 C.3     1  UNL1        0.0171
     24 C          -0.4959   59.3089   80.3464 C.3     1  UNL1        0.0688
     25 N          -0.1565   60.7244   80.5339 N.3     1  UNL1       -0.2951
     26 H           0.1311   60.8816   81.4978 H       1  UNL1        0.1235
     27 C           0.9119   61.2245   79.6456 C.3     1  UNL1        0.0779
     28 C           2.0218   60.1664   79.4310 C.3     1  UNL1        0.0207
     29 C           2.9115   60.4978   78.2401 C.3     1  UNL1        0.0079
     30 C           2.0712   60.6206   76.9666 C.3     1  UNL1        0.0434
     31 C           0.9065   61.5526   77.1495 C.ar    1  UNL1        0.0333
     32 N           0.3788   62.1325   76.0173 N.ar    1  UNL1       -0.3248
     33 H           0.7390   61.8850   75.1021 H       1  UNL1        0.1686
     34 C          -0.6452   63.0403   76.0206 C.ar    1  UNL1        0.2575
     35 O          -1.1101   63.5231   74.9823 O.2     1  UNL1       -0.2672
     36 C          -1.1602   63.4363   77.3465 C.ar    1  UNL1        0.0603
     37 C          -0.6524   62.8616   78.4470 C.ar    1  UNL1        0.0030
     38 C           0.3971   61.8540   78.3593 C.ar    1  UNL1        0.0037
@<TRIPOS>BOND
     1     8     9    2
     2     9    10   ar
     3     9    14   ar
     4    10    11   ar
     5    11    12   ar
     6    12    13   ar
     7    12    19    1
     8    13    14   ar
     9    13    16    1
    10    14    15    1
    11    16    17    1
    12    17    18    1
    13    18    19    1
    14    19     6    1
    15     6     5    1
    16     6     7    1
    17     5     4    1
    18     4     3    1
    19     3     2    1
    20     2     1    1
    21     1    20    1
    22    20    21    1
    23    21    22    1
    24    22    23    1
    25    23    24    1
    26    24    25    1
    27    25    26    1
    28    27    28    1
    29    27    38    1
    30    27    25    1
    31    28    29    1
    32    29    30    1
    33    30    31    1
    34    31    32   ar
    35    31    38   ar
    36    32    33    1
    37    32    34   ar
    38    34    35    2
    39    34    36   ar
    40    36    37   ar
    41    37    38   ar
#	Name:			CHEMBL490866
#	Creating user name:	trannguyen
#	Creation time:		Tue Feb  8 17:54:08 2022


#	Modifying user name:	trannguyen
#	Modification time:	Tue Feb  8 17:54:08 2022

@<TRIPOS>MOLECULE
CHEMBL490866
 40 45 0 0 0
SMALL
GASTEIGER

@<TRIPOS>ATOM
      1 C           3.5706   69.3088   61.4366 C.ar    1  UNL1        0.1721
      2 C           2.2590   68.7945   61.4246 C.ar    1  UNL1        0.0401
      3 C           1.7497   67.9662   62.4327 C.ar    1  UNL1        0.0045
      4 C           2.5675   67.6465   63.4893 C.ar    1  UNL1        0.0164
      5 C           3.8409   68.2193   63.5281 C.ar    1  UNL1        0.0228
      6 C           4.3561   69.0075   62.5195 C.ar    1  UNL1        0.1685
      7 O           5.6963   69.2799   62.6618 O.3     1  UNL1       -0.4757
      8 C           5.9911   68.9482   64.0364 C.3     1  UNL1        0.1761
      9 C           6.0721   70.2762   64.7549 C.3     1  UNL1        0.0779
     10 C           5.9559   70.0784   66.2136 C.3     1  UNL1        0.1358
     11 O           5.7856   71.3704   66.7288 O.3     1  UNL1       -0.3799
     12 C           4.7823   69.2918   66.5912 C.2     1  UNL1       -0.0015
     13 C           4.3327   68.2886   65.8526 C.2     1  UNL1       -0.0212
     14 C           4.9000   67.9423   64.5224 C.3     1  UNL1        0.0788
     15 C           5.3495   66.4915   64.2359 C.3     1  UNL1        0.0358
     16 C           4.2749   65.4270   63.9725 C.3     1  UNL1        0.1021
     17 N           3.0104   65.6232   64.7802 N.2     1  UNL1       -0.3466
     18 C           2.1890   66.5690   64.4373 C.2     1  UNL1        0.0715
     19 H           6.6147   71.8499   66.5533 H       1  UNL1        0.2108
     20 C           5.4861   70.3774   60.6365 C.3     1  UNL1        0.2526
     21 O           4.1182   70.0422   60.4264 O.3     1  UNL1       -0.4684
     22 C           2.6157   64.5597   65.7842 C.3     1  UNL1        0.1013
     23 C           3.7552   63.5971   66.2011 C.3     1  UNL1        0.0241
     24 C           3.8530   63.1121   67.6711 C.3     1  UNL1        0.0020
     25 C           3.5509   61.6056   67.8653 C.3     1  UNL1        0.0001
     26 C           2.3085   61.2306   68.7413 C.3     1  UNL1        0.0001
     27 C           2.7240   60.4731   69.9709 C.3     1  UNL1        0.0018
     28 C           1.8817   60.4372   71.2333 C.3     1  UNL1        0.0220
     29 C           2.2101   59.1586   72.0135 C.3     1  UNL1        0.1015
     30 N           2.2719   59.3067   73.4843 N.am    1  UNL1       -0.2229
     31 C           1.2063   58.7544   74.2011 C.2     1  UNL1        0.2551
     32 O           0.2911   58.1186   73.8089 O.2     1  UNL1       -0.2695
     33 C           1.3231   59.2760   75.5815 C.ar    1  UNL1        0.0584
     34 C           0.3628   59.2807   76.5666 C.ar    1  UNL1        0.0047
     35 C           0.5430   60.1633   77.6447 C.ar    1  UNL1        0.0001
     36 C           1.6133   61.0767   77.6791 C.ar    1  UNL1        0.0001
     37 C           2.5427   61.0927   76.6456 C.ar    1  UNL1        0.0047
     38 C           2.3837   60.1400   75.6355 C.ar    1  UNL1        0.0584
     39 C           2.9628   60.2197   74.2944 C.2     1  UNL1        0.2551
     40 O           3.7561   61.1034   74.1389 O.2     1  UNL1       -0.2695
@<TRIPOS>BOND
     1    20    21    1
     2    21     1    1
     3     1     2   ar
     4     1     6   ar
     5     2     3   ar
     6     3     4   ar
     7     4     5   ar
     8     4    18    1
     9     5     6   ar
    10     5    14    1
    11     6     7    1
    12     7     8    1
    13     8     9    1
    14     8    14    1
    15     9    10    1
    16    10    11    1
    17    10    12    1
    18    11    19    1
    19    12    13    2
    20    14    13    1
    21    14    15    1
    22    15    16    1
    23    16    17    1
    24    17    22    1
    25    17    18    2
    26    22    23    1
    27    23    24    1
    28    24    25    1
    29    25    26    1
    30    26    27    1
    31    27    28    1
    32    28    29    1
    33    29    30    1
    34    30    31   am
    35    30    39   am
    36    31    32    2
    37    31    33    1
    38    33    34   ar
    39    33    38   ar
    40    34    35   ar
    41    35    36   ar
    42    36    37   ar
    43    37    38   ar
    44    38    39    1
    45    39    40    2
#	Name:			CHEMBL502
#	Creating user name:	trannguyen
#	Creation time:		Tue Feb  8 17:54:08 2022


#	Modifying user name:	trannguyen
#	Modification time:	Tue Feb  8 17:54:08 2022

@<TRIPOS>MOLECULE
CHEMBL502
 28 31 0 0 0
SMALL
GASTEIGER

@<TRIPOS>ATOM
      1 C          -7.1902   58.2157   77.3441 C.ar    1  UNL1        0.1721
      2 C          -6.0615   57.3869   77.4454 C.ar    1  UNL1        0.0359
      3 C          -4.9418   57.6850   76.6911 C.ar    1  UNL1       -0.0158
      4 C          -4.9274   58.8173   75.8967 C.ar    1  UNL1        0.0340
      5 C          -5.9930   59.6894   75.8032 C.ar    1  UNL1        0.0426
      6 C          -7.1561   59.3650   76.5084 C.ar    1  UNL1        0.1725
      7 C          -3.6672   58.8537   75.1703 C.2     1  UNL1        0.1727
      8 O          -3.3720   59.7452   74.4026 O.2     1  UNL1       -0.2913
      9 C          -2.8930   57.5722   75.4506 C.3     1  UNL1        0.0663
     10 C          -3.6583   56.9233   76.6314 C.3     1  UNL1        0.0342
     11 C          -9.1320   56.8487   77.5391 C.3     1  UNL1        0.2526
     12 O          -8.3737   57.9630   77.9970 O.3     1  UNL1       -0.4684
     13 O          -8.2988   60.1275   76.4416 O.3     1  UNL1       -0.4684
     14 C          -8.0847   61.5253   76.2572 C.3     1  UNL1        0.2526
     15 C          -1.4169   57.7891   75.7874 C.3     1  UNL1        0.0081
     16 C          -1.1005   58.1122   77.2663 C.3     1  UNL1        0.0032
     17 C          -0.0940   57.0941   77.8341 C.3     1  UNL1        0.0174
     18 C           1.3499   57.3745   77.3941 C.3     1  UNL1        0.0724
     19 N           1.7982   58.7557   77.6405 N.3     1  UNL1       -0.2690
     20 C           0.8613   59.7034   77.0159 C.3     1  UNL1        0.0724
     21 C          -0.5766   59.5353   77.5081 C.3     1  UNL1        0.0174
     22 C           2.0073   59.0029   79.0826 C.3     1  UNL1        0.0991
     23 C           3.2873   59.7494   79.4034 C.ar    1  UNL1       -0.0061
     24 C           3.3884   61.1274   79.1697 C.ar    1  UNL1       -0.0029
     25 C           4.5582   61.8164   79.4945 C.ar    1  UNL1       -0.0003
     26 C           5.6381   61.1362   80.0558 C.ar    1  UNL1       -0.0000
     27 C           5.5512   59.7659   80.2914 C.ar    1  UNL1       -0.0003
     28 C           4.3833   59.0748   79.9654 C.ar    1  UNL1       -0.0029
@<TRIPOS>BOND
     1    11    12    1
     2    12     1    1
     3     1     2   ar
     4     1     6   ar
     5     2     3   ar
     6     3     4   ar
     7     3    10    1
     8     4     5   ar
     9     4     7    1
    10     5     6   ar
    11     6    13    1
    12    13    14    1
    13     7     8    2
    14     7     9    1
    15     9    15    1
    16     9    10    1
    17    15    16    1
    18    16    17    1
    19    16    21    1
    20    17    18    1
    21    18    19    1
    22    19    22    1
    23    19    20    1
    24    22    23    1
    25    23    24   ar
    26    23    28   ar
    27    24    25   ar
    28    25    26   ar
    29    26    27   ar
    30    27    28   ar
    31    20    21    1
#	Name:			CHEMBL519154
#	Creating user name:	trannguyen
#	Creation time:		Tue Feb  8 17:54:08 2022


#	Modifying user name:	trannguyen
#	Modification time:	Tue Feb  8 17:54:08 2022

@<TRIPOS>MOLECULE
CHEMBL519154
 40 43 0 0 0
SMALL
GASTEIGER

@<TRIPOS>ATOM
      1 C          -8.8607   74.3410   74.4558 C.3     1  UNL1        0.0000
      2 C          -9.4339   73.3713   73.4309 C.3     1  UNL1        0.0000
      3 C          -8.3613   72.8579   72.4765 C.3     1  UNL1        0.0000
      4 C          -8.7122   73.2059   71.0312 C.3     1  UNL1        0.0014
      5 C         -10.1550   73.6872   70.8429 C.3     1  UNL1        0.0171
      6 C         -10.2858   74.7093   69.7100 C.3     1  UNL1        0.0688
      7 N          -9.1278   75.6029   69.6832 N.3     1  UNL1       -0.2951
      8 H          -8.7546   75.6116   68.7288 H       1  UNL1        0.1235
      9 O          -5.1508   80.5400   70.2723 O.2     1  UNL1       -0.2672
     10 C          -6.0676   79.7345   70.1952 C.ar    1  UNL1        0.2575
     11 C          -6.9316   79.6522   68.9870 C.ar    1  UNL1        0.0603
     12 C          -7.9419   78.7679   68.9359 C.ar    1  UNL1        0.0030
     13 C          -8.2209   77.8873   70.0578 C.ar    1  UNL1        0.0037
     14 C          -7.4240   77.9474   71.1420 C.ar    1  UNL1        0.0333
     15 N          -6.3684   78.8357   71.1919 N.ar    1  UNL1       -0.3248
     16 H          -5.7883   78.8904   72.0169 H       1  UNL1        0.1686
     17 C          -7.7158   77.0914   72.3342 C.3     1  UNL1        0.0434
     18 C          -9.2055   77.1428   72.6661 C.3     1  UNL1        0.0079
     19 C         -10.1438   77.1038   71.4494 C.3     1  UNL1        0.0207
     20 C          -9.4632   76.9947   70.0610 C.3     1  UNL1        0.0779
     21 C          -7.3428   74.2748   74.6329 C.3     1  UNL1        0.0000
     22 C          -6.8470   73.5924   75.8964 C.3     1  UNL1        0.0000
     23 C          -7.8328   73.2699   77.0077 C.3     1  UNL1        0.0000
     24 C          -8.1490   74.3684   78.0275 C.3     1  UNL1        0.0014
     25 C          -9.6185   74.4574   78.5053 C.3     1  UNL1        0.0171
     26 C         -10.3526   75.8019   78.2993 C.3     1  UNL1        0.0688
     27 N          -9.7162   76.5746   77.2403 N.3     1  UNL1       -0.2951
     28 H          -8.9123   76.0566   76.8937 H       1  UNL1        0.1235
     29 C          -9.2017   77.9064   77.5335 C.3     1  UNL1        0.0779
     30 C          -8.1812   77.9170   78.6688 C.3     1  UNL1        0.0207
     31 C          -6.7219   77.7841   78.2493 C.3     1  UNL1        0.0079
     32 C          -6.3832   78.1156   76.7927 C.3     1  UNL1        0.0434
     33 C          -7.4551   78.8201   76.0186 C.ar    1  UNL1        0.0333
     34 N          -7.0763   79.5980   74.9395 N.ar    1  UNL1       -0.3248
     35 H          -6.0941   79.6899   74.7032 H       1  UNL1        0.1686
     36 C          -7.9430   80.2988   74.1448 C.ar    1  UNL1        0.2575
     37 O          -7.5716   81.0004   73.2128 O.2     1  UNL1       -0.2672
     38 C          -9.3788   80.1475   74.4710 C.ar    1  UNL1        0.0603
     39 C          -9.7488   79.3789   75.5065 C.ar    1  UNL1        0.0030
     40 C          -8.7578   78.6952   76.3248 C.ar    1  UNL1        0.0037
@<TRIPOS>BOND
     1     9    10    2
     2    10    11   ar
     3    10    15   ar
     4    11    12   ar
     5    12    13   ar
     6    13    14   ar
     7    13    20    1
     8    14    15   ar
     9    14    17    1
    10    15    16    1
    11    17    18    1
    12    18    19    1
    13    19    20    1
    14    20     7    1
    15     7     6    1
    16     7     8    1
    17     6     5    1
    18     5     4    1
    19     4     3    1
    20     3     2    1
    21     2     1    1
    22     1    21    1
    23    21    22    1
    24    22    23    1
    25    23    24    1
    26    24    25    1
    27    25    26    1
    28    26    27    1
    29    27    28    1
    30    29    30    1
    31    29    40    1
    32    29    27    1
    33    30    31    1
    34    31    32    1
    35    32    33    1
    36    33    34   ar
    37    33    40   ar
    38    34    35    1
    39    34    36   ar
    40    36    37    2
    41    36    38   ar
    42    38    39   ar
    43    39    40   ar
#	Name:			CHEMBL525622
#	Creating user name:	trannguyen
#	Creation time:		Tue Feb  8 17:54:08 2022


#	Modifying user name:	trannguyen
#	Modification time:	Tue Feb  8 17:54:08 2022

@<TRIPOS>MOLECULE
CHEMBL525622
 16 16 0 0 0
SMALL
GASTEIGER

@<TRIPOS>ATOM
      1 C           4.0842   68.8765   64.5494 C.ar    1  UNL1        0.0344
      2 C           2.8215   68.8376   65.1605 C.ar    1  UNL1        0.0132
      3 C           2.6424   69.2872   66.4739 C.ar    1  UNL1        0.0013
      4 C           3.7214   69.7797   67.2072 C.ar    1  UNL1        0.0032
      5 C           4.9923   69.8079   66.6316 C.ar    1  UNL1        0.0443
      6 C           5.1597   69.3708   65.2998 C.ar    1  UNL1        0.0163
      7 C           2.9984   68.6282   62.2718 C.3     1  UNL1        0.0960
      8 N           4.2460   68.3779   63.1203 N.pl3   1  UNL1       -0.3512
      9 C           5.4124   69.1130   62.4646 C.3     1  UNL1        0.0960
     10 C           4.5017   66.8724   63.1396 C.3     1  UNL1        0.0960
     11 C           6.1959   70.3245   67.3420 C.2     1  UNL1        0.2667
     12 O           7.2876   70.0154   66.8583 O.2     1  UNL1       -0.2825
     13 C           6.0376   71.1376   68.6254 C.3     1  UNL1        0.4554
     14 F           5.3929   70.4776   69.6258 F       1  UNL1       -0.1631
     15 F           7.2461   71.4933   69.1401 F       1  UNL1       -0.1631
     16 F           5.3452   72.2880   68.4177 F       1  UNL1       -0.1631
@<TRIPOS>BOND
     1     7     8    1
     2     8     9    1
     3     8    10    1
     4     8     1    1
     5     1     2   ar
     6     1     6   ar
     7     2     3   ar
     8     3     4   ar
     9     4     5   ar
    10     5    11    1
    11     5     6   ar
    12    11    12    2
    13    11    13    1
    14    13    14    1
    15    13    15    1
    16    13    16    1
#	Name:			CHEMBL52722
#	Creating user name:	trannguyen
#	Creation time:		Tue Feb  8 17:54:08 2022


#	Modifying user name:	trannguyen
#	Modification time:	Tue Feb  8 17:54:08 2022

@<TRIPOS>MOLECULE
CHEMBL52722
 17 18 0 0 0
SMALL
GASTEIGER

@<TRIPOS>ATOM
      1 C           3.5801   68.7138   63.0345 C.ar    1  UNL1        0.0767
      2 C           4.8405   68.5312   62.4652 C.ar    1  UNL1        0.0065
      3 C           5.9794   68.7640   63.2281 C.ar    1  UNL1        0.0015
      4 C           5.8613   69.1798   64.5595 C.ar    1  UNL1        0.0153
      5 C           4.6067   69.3775   65.1592 C.ar    1  UNL1        0.0608
      6 C           3.4687   69.1528   64.3632 C.ar    1  UNL1        0.0217
      7 N           4.4834   69.7945   66.5222 N.am    1  UNL1       -0.2081
      8 C           5.4991   70.3523   67.2677 C.2     1  UNL1        0.2356
      9 O           6.6371   70.6457   66.9273 O.2     1  UNL1       -0.2741
     10 C           5.0124   70.6002   68.6638 C.3     1  UNL1        0.0956
     11 C           3.5437   70.2653   68.6229 C.3     1  UNL1        0.0956
     12 C           3.3345   69.6568   67.2702 C.2     1  UNL1        0.2356
     13 O           2.2803   69.1134   66.9620 O.2     1  UNL1       -0.2741
     14 O           1.3519   68.0052   62.6133 O.2     1  UNL1       -0.2451
     15 C           2.3871   68.4890   62.1814 C.2     1  UNL1        0.3381
     16 O           2.5308   68.9043   60.9062 O.3     1  UNL1       -0.4771
     17 H           3.3402   69.4143   60.7139 H       1  UNL1        0.2954
@<TRIPOS>BOND
     1    14    15    2
     2    15    16    1
     3    15     1    1
     4    16    17    1
     5     1     2   ar
     6     1     6   ar
     7     2     3   ar
     8     3     4   ar
     9     4     5   ar
    10     5     7    1
    11     5     6   ar
    12     7     8   am
    13     7    12   am
    14     8     9    2
    15     8    10    1
    16    10    11    1
    17    11    12    1
    18    12    13    2
#	Name:			CHEMBL538296
#	Creating user name:	trannguyen
#	Creation time:		Tue Feb  8 17:54:08 2022


#	Modifying user name:	trannguyen
#	Modification time:	Tue Feb  8 17:54:08 2022

@<TRIPOS>MOLECULE
CHEMBL538296
 27 30 0 0 0
SMALL
GASTEIGER

@<TRIPOS>ATOM
      1 C           4.7851   64.5218   63.4662 C.ar    1  UNL1        0.1721
      2 C           5.1541   65.9018   63.5021 C.ar    1  UNL1        0.0359
      3 C           4.3580   66.8037   64.2432 C.ar    1  UNL1       -0.0158
      4 C           3.3010   66.3324   64.9588 C.ar    1  UNL1        0.0340
      5 C           2.9023   65.0165   64.9281 C.ar    1  UNL1        0.0426
      6 C           3.6079   64.0902   64.1613 C.ar    1  UNL1        0.1725
      7 C           2.6886   67.3895   65.6946 C.2     1  UNL1        0.1727
      8 O           1.7160   67.2242   66.4160 O.2     1  UNL1       -0.2913
      9 C           3.2071   68.7142   65.2295 C.3     1  UNL1        0.0663
     10 C           4.5295   68.2962   64.4570 C.3     1  UNL1        0.0342
     11 C           3.3585   69.8662   66.2854 C.3     1  UNL1        0.0104
     12 C           4.7977   70.0560   66.8061 C.3     1  UNL1        0.0178
     13 C           4.8616   71.3053   67.6780 C.3     1  UNL1        0.0724
     14 N           3.9895   71.2304   68.8389 N.3     1  UNL1       -0.2690
     15 C           2.5741   70.8148   68.5200 C.3     1  UNL1        0.0724
     16 C           2.4779   69.6266   67.5365 C.3     1  UNL1        0.0178
     17 C           4.5934   70.6190   70.0422 C.3     1  UNL1        0.0991
     18 C           6.0963   70.7234   70.0206 C.ar    1  UNL1       -0.0061
     19 C           6.8508   70.2056   71.0899 C.ar    1  UNL1       -0.0029
     20 C           8.2441   70.2980   71.0789 C.ar    1  UNL1       -0.0003
     21 C           8.8940   70.9281   70.0154 C.ar    1  UNL1       -0.0000
     22 C           8.1506   71.4621   68.9580 C.ar    1  UNL1       -0.0003
     23 C           6.7553   71.3542   68.9544 C.ar    1  UNL1       -0.0029
     24 C           6.1954   62.5306   63.4232 C.3     1  UNL1        0.2526
     25 O           5.5414   63.5872   62.8239 O.3     1  UNL1       -0.4684
     26 O           3.1175   62.8266   64.1507 O.3     1  UNL1       -0.4684
     27 C           2.8848   61.9961   65.2239 C.3     1  UNL1        0.2526
@<TRIPOS>BOND
     1    24    25    1
     2    25     1    1
     3     1     2   ar
     4     1     6   ar
     5     2     3   ar
     6     3     4   ar
     7     3    10    1
     8     4     5   ar
     9     4     7    1
    10     5     6   ar
    11     6    26    1
    12    26    27    1
    13     7     8    2
    14     7     9    1
    15     9    11    1
    16     9    10    1
    17    11    12    1
    18    11    16    1
    19    12    13    1
    20    13    14    1
    21    14    17    1
    22    14    15    1
    23    17    18    1
    24    18    19   ar
    25    18    23   ar
    26    19    20   ar
    27    20    21   ar
    28    21    22   ar
    29    22    23   ar
    30    15    16    1
#	Name:			CHEMBL538358
#	Creating user name:	trannguyen
#	Creation time:		Tue Feb  8 17:54:08 2022


#	Modifying user name:	trannguyen
#	Modification time:	Tue Feb  8 17:54:08 2022

@<TRIPOS>MOLECULE
CHEMBL538358
 40 43 0 0 0
SMALL
GASTEIGER

@<TRIPOS>ATOM
      1 N          -0.9451   57.3309   77.8983 N.pl3   1  UNL1       -0.2871
      2 C          -1.2595   56.1337   78.5187 C.2     1  UNL1        0.0527
      3 C          -2.2487   56.0958   79.4955 C.2     1  UNL1        0.0286
      4 C          -3.0307   57.1956   79.7863 C.2     1  UNL1        0.0402
      5 N          -4.0282   57.0449   80.7579 N.pl3   1  UNL1       -0.3572
      6 C          -2.6302   58.4261   79.2532 C.2     1  UNL1        0.0088
      7 C          -3.3701   59.5778   79.5649 C.3     1  UNL1        0.0548
      8 C          -3.0694   60.8129   79.0142 C.2     1  UNL1       -0.0213
      9 C          -1.9452   60.9792   78.2312 C.ar    1  UNL1       -0.0027
     10 C          -1.6991   62.2689   77.7390 C.ar    1  UNL1        0.0010
     11 C          -0.5635   62.5448   76.9941 C.ar    1  UNL1        0.0141
     12 C           0.3682   61.5423   76.7804 C.ar    1  UNL1        0.0416
     13 N           1.5954   61.8554   76.1732 N.pl3   1  UNL1       -0.3570
     14 C           0.1461   60.2793   77.3414 C.ar    1  UNL1        0.0153
     15 C          -1.0722   59.8848   77.9748 C.ar    1  UNL1        0.0143
     16 C          -1.4963   58.5333   78.3769 C.2     1  UNL1        0.0490
     17 H          -4.4054   56.1082   80.8605 H       1  UNL1        0.1423
     18 H          -4.7915   57.7208   80.7255 H       1  UNL1        0.1423
     19 H           1.5657   62.6807   75.5774 H       1  UNL1        0.1424
     20 H           2.0602   61.0905   75.6880 H       1  UNL1        0.1424
     21 C          -0.6632   54.8221   78.0821 C.ar    1  UNL1        0.0137
     22 C          -1.5060   53.8130   77.5499 C.ar    1  UNL1        0.0012
     23 C          -1.0239   52.5585   77.1581 C.ar    1  UNL1        0.0000
     24 C           0.3330   52.2882   77.2395 C.ar    1  UNL1        0.0000
     25 C           1.1907   53.2477   77.7699 C.ar    1  UNL1        0.0000
     26 C           0.6932   54.4799   78.2296 C.ar    1  UNL1        0.0012
     27 C          -0.1837   57.3179   76.6131 C.3     1  UNL1        0.0955
     28 C          -1.0558   57.6328   75.4079 C.3     1  UNL1        0.0218
     29 C          -2.1140   56.5475   75.2371 C.3     1  UNL1        0.0018
     30 C          -3.4764   57.1104   75.5976 C.3     1  UNL1        0.0001
     31 C          -3.5549   58.6165   75.3743 C.3     1  UNL1        0.0000
     32 C          -4.7993   59.1314   76.0828 C.3     1  UNL1        0.0000
     33 C          -5.5064   58.0785   76.9222 C.3     1  UNL1        0.0002
     34 C          -6.5753   58.7779   77.7651 C.3     1  UNL1        0.0061
     35 C          -7.3932   59.7614   76.9421 C.3     1  UNL1        0.0610
     36 C          -8.0551   60.8096   77.8440 C.3     1  UNL1        0.1092
     37 C          -8.7982   63.2123   77.8966 C.3     1  UNL1        0.1710
     38 N          -7.7013   62.2441   77.4539 N.4     1  UNL1        0.3106
     39 C          -7.6034   62.3537   75.9301 C.3     1  UNL1        0.1710
     40 C          -6.3687   62.6860   78.0354 C.3     1  UNL1        0.1710
@<TRIPOS>UNITY_ATOM_ATTR
38 1
charge 1
@<TRIPOS>BOND
     1    37    38    1
     2    38    39    1
     3    38    40    1
     4    38    36    1
     5    36    35    1
     6    35    34    1
     7    34    33    1
     8    33    32    1
     9    32    31    1
    10    31    30    1
    11    30    29    1
    12    29    28    1
    13    28    27    1
    14    27     1    1
    15     1     2    1
    16     1    16    1
    17     2    21    1
    18     2     3    2
    19    21    22   ar
    20    21    26   ar
    21    22    23   ar
    22    23    24   ar
    23    24    25   ar
    24    25    26   ar
    25     3     4    1
    26     4     5    1
    27     4     6    2
    28     5    17    1
    29     5    18    1
    30     6     7    1
    31     6    16    1
    32     7     8    1
    33     8     9    2
    34     9    10   ar
    35     9    15   ar
    36    10    11   ar
    37    11    12   ar
    38    12    13    1
    39    12    14   ar
    40    13    19    1
    41    13    20    1
    42    14    15   ar
    43    15    16    2
#	Name:			CHEMBL53968
#	Creating user name:	trannguyen
#	Creation time:		Tue Feb  8 17:54:08 2022


#	Modifying user name:	trannguyen
#	Modification time:	Tue Feb  8 17:54:08 2022

@<TRIPOS>MOLECULE
CHEMBL53968
 20 20 0 0 0
SMALL
GASTEIGER

@<TRIPOS>ATOM
      1 C           1.3563   59.0858   76.0595 C.2     1  UNL1        0.2499
      2 O           1.8279   57.9515   76.1020 O.2     1  UNL1       -0.2698
      3 N           0.0404   59.4214   76.2573 N.am    1  UNL1       -0.2804
      4 H          -0.2110   60.4041   76.2628 H       1  UNL1        0.1552
      5 C          -1.0161   58.5097   76.5160 C.ar    1  UNL1        0.0507
      6 C          -2.0235   58.7493   77.4577 C.ar    1  UNL1        0.0147
      7 C          -2.9975   57.7857   77.7281 C.ar    1  UNL1        0.0015
      8 C          -2.9971   56.5793   77.0379 C.ar    1  UNL1        0.0065
      9 C          -2.0402   56.3451   76.0494 C.ar    1  UNL1        0.0767
     10 C          -1.0331   57.2993   75.8095 C.ar    1  UNL1        0.0211
     11 C          -2.0374   55.0848   75.2744 C.2     1  UNL1        0.3381
     12 O          -1.0453   54.6899   74.6706 O.2     1  UNL1       -0.2451
     13 O          -3.2149   54.4217   75.2465 O.3     1  UNL1       -0.4771
     14 H          -3.9740   54.8800   75.6372 H       1  UNL1        0.2954
     15 C           2.9952   60.4088   74.6728 C.2     1  UNL1        0.0863
     16 C           2.2495   60.2362   75.7801 C.2     1  UNL1        0.0647
     17 O           3.0631   60.1061   72.3516 O.2     1  UNL1       -0.2451
     18 C           3.2182   59.6020   73.4514 C.2     1  UNL1        0.3384
     19 O           3.5085   58.3030   73.6016 O.3     1  UNL1       -0.4771
     20 H           3.7123   58.0227   74.5232 H       1  UNL1        0.2954
@<TRIPOS>BOND
     1    17    18    2
     2    18    19    1
     3    18    15    1
     4    19    20    1
     5    15    16    2
     6    16     1    1
     7     1     2    2
     8     1     3   am
     9     3     5    1
    10     3     4    1
    11     5     6   ar
    12     5    10   ar
    13     6     7   ar
    14     7     8   ar
    15     8     9   ar
    16     9    11    1
    17     9    10   ar
    18    11    12    2
    19    11    13    1
    20    13    14    1
#	Name:			CHEMBL540131
#	Creating user name:	trannguyen
#	Creation time:		Tue Feb  8 17:54:08 2022


#	Modifying user name:	trannguyen
#	Modification time:	Tue Feb  8 17:54:08 2022

@<TRIPOS>MOLECULE
CHEMBL540131
 46 49 0 0 0
SMALL
GASTEIGER

@<TRIPOS>ATOM
      1 C           3.2930   62.9154   67.7911 C.3     1  UNL1        0.0023
      2 C           3.4677   61.5111   68.3875 C.3     1  UNL1        0.0213
      3 C           2.2188   60.9603   69.0591 C.3     1  UNL1        0.0897
      4 C           2.4610   59.6609   71.1252 C.2     1  UNL1        0.2458
      5 O           2.5939   58.5913   70.5446 O.2     1  UNL1       -0.2701
      6 N           2.3373   60.8617   70.4867 N.am    1  UNL1       -0.3009
      7 H           2.2373   61.7172   71.0142 H       1  UNL1        0.1497
      8 C           2.3307   59.7301   75.4007 C.ar    1  UNL1        0.1389
      9 C           3.3295   60.4593   74.7431 C.ar    1  UNL1        0.0370
     10 C           3.4061   60.4726   73.3468 C.ar    1  UNL1        0.0076
     11 C           2.4793   59.7275   72.6051 C.ar    1  UNL1        0.0536
     12 C           1.4979   58.9818   73.2599 C.ar    1  UNL1        0.0076
     13 C           1.4283   58.9720   74.6537 C.ar    1  UNL1        0.0370
     14 O           2.3610   59.8274   76.7649 O.3     1  UNL1       -0.4691
     15 C           2.1482   61.1286   77.3465 C.3     1  UNL1        0.2658
     16 C           0.9329   60.9912   78.2880 C.3     1  UNL1        0.1566
     17 N          -0.3667   61.8178   77.9155 N.4     1  UNL1        0.2998
     18 C          -0.1403   62.4158   76.5111 C.3     1  UNL1        0.1088
     19 C          -0.9352   63.6732   76.1824 C.3     1  UNL1        0.0671
     20 C           0.7544   63.0588   79.9438 C.3     1  UNL1        0.0671
     21 C          -0.4560   62.9007   79.0401 C.3     1  UNL1        0.1088
     22 C          -1.5982   60.8815   77.8818 C.3     1  UNL1        0.1088
     23 C          -2.8636   61.4891   78.4412 C.3     1  UNL1        0.0671
     24 C           4.0888   63.2355   66.5167 C.3     1  UNL1        0.0097
     25 C           3.2978   63.2193   65.2075 C.3     1  UNL1        0.0866
     26 C           3.2593   64.6011   64.5553 C.2     1  UNL1        0.2379
     27 O           3.7728   64.8840   63.5197 O.2     1  UNL1       -0.2736
     28 N           2.5160   65.4614   65.3717 N.am    1  UNL1       -0.2359
     29 H           1.7675   64.9995   65.8473 H       1  UNL1        0.1727
     30 N           2.1161   66.6556   64.7990 N.pl3   1  UNL1       -0.2635
     31 H           1.9477   66.4614   63.8074 H       1  UNL1        0.1700
     32 C           3.0203   67.7495   65.0296 C.ar    1  UNL1        0.0597
     33 C           3.8208   68.1595   63.9297 C.ar    1  UNL1        0.0060
     34 C           4.6617   69.2562   64.1058 C.ar    1  UNL1        0.0562
     35 N           4.7343   69.9611   65.2575 N.ar    1  UNL1       -0.2499
     36 C           3.9793   69.5985   66.2995 C.ar    1  UNL1        0.0829
     37 C           4.1415   70.3582   67.4543 C.ar    1  UNL1        0.0305
     38 C           3.4409   70.0907   68.6233 C.ar    1  UNL1        0.0592
     39 CL          3.6970   71.0276   70.0405 Cl      1  UNL1       -0.0822
     40 C           2.5181   69.0703   68.6421 C.ar    1  UNL1        0.0115
     41 C           2.3089   68.3312   67.4763 C.ar    1  UNL1        0.0036
     42 C           3.0647   68.5193   66.2684 C.ar    1  UNL1        0.0320
     43 C           5.5306   69.7754   62.9972 C.3     1  UNL1        0.0455
     44 C           5.8718   68.7088   61.9529 C.3     1  UNL1        0.0066
     45 C           4.5944   68.0369   61.4791 C.3     1  UNL1        0.0052
     46 C           3.8664   67.3629   62.6416 C.3     1  UNL1        0.0289
@<TRIPOS>UNITY_ATOM_ATTR
17 1
charge 1
@<TRIPOS>BOND
     1    20    21    1
     2    21    17    1
     3    17    22    1
     4    17    18    1
     5    17    16    1
     6    22    23    1
     7    18    19    1
     8    16    15    1
     9    15    14    1
    10    14     8    1
    11     8     9   ar
    12     8    13   ar
    13     9    10   ar
    14    10    11   ar
    15    11     4    1
    16    11    12   ar
    17     4     5    2
    18     4     6   am
    19     6     3    1
    20     6     7    1
    21     3     2    1
    22     2     1    1
    23     1    24    1
    24    24    25    1
    25    25    26    1
    26    26    27    2
    27    26    28   am
    28    28    30    1
    29    28    29    1
    30    30    32    1
    31    30    31    1
    32    32    33   ar
    33    32    42   ar
    34    33    34   ar
    35    33    46    1
    36    34    35   ar
    37    34    43    1
    38    35    36   ar
    39    36    37   ar
    40    36    42   ar
    41    37    38   ar
    42    38    39    1
    43    38    40   ar
    44    40    41   ar
    45    41    42   ar
    46    43    44    1
    47    44    45    1
    48    45    46    1
    49    12    13   ar
#	Name:			CHEMBL540132
#	Creating user name:	trannguyen
#	Creation time:		Tue Feb  8 17:54:08 2022


#	Modifying user name:	trannguyen
#	Modification time:	Tue Feb  8 17:54:08 2022

@<TRIPOS>MOLECULE
CHEMBL540132
 56 59 0 0 0
SMALL
GASTEIGER

@<TRIPOS>ATOM
      1 C           2.3637   59.2588   71.6396 C.2     1  UNL1        0.2460
      2 O           2.9020   58.2204   71.2251 O.2     1  UNL1       -0.2701
      3 N           2.1622   60.3713   70.8482 N.am    1  UNL1       -0.3009
      4 H           1.9274   61.2510   71.2939 H       1  UNL1        0.1497
      5 C           2.4858   60.0089   75.3320 C.ar    1  UNL1        0.1420
      6 C           1.3452   59.3564   75.7769 C.ar    1  UNL1        0.0738
      7 C           0.4709   58.7492   74.8755 C.ar    1  UNL1        0.1420
      8 C           0.7808   58.7658   73.5141 C.ar    1  UNL1        0.0416
      9 C           1.9792   59.3361   73.0610 C.ar    1  UNL1        0.0594
     10 C           2.8023   60.0076   73.9775 C.ar    1  UNL1        0.0416
     11 O          -0.7040   58.1396   75.2371 O.3     1  UNL1       -0.4690
     12 C          -0.7233   57.5567   76.5499 C.3     1  UNL1        0.2658
     13 C          -1.0423   56.0564   76.4847 C.3     1  UNL1        0.1566
     14 N          -2.5494   55.6813   76.6479 N.4     1  UNL1        0.2998
     15 C          -2.8828   55.7597   78.1732 C.3     1  UNL1        0.1088
     16 C          -2.9470   54.4146   78.8868 C.3     1  UNL1        0.0671
     17 C          -2.8169   54.2405   76.0967 C.3     1  UNL1        0.1088
     18 C          -1.5835   53.5431   75.5304 C.3     1  UNL1        0.0671
     19 C          -3.4440   56.6698   75.8634 C.3     1  UNL1        0.1088
     20 C          -4.4384   57.4389   76.7198 C.3     1  UNL1        0.0671
     21 O           3.2350   60.5908   76.3171 O.3     1  UNL1       -0.4690
     22 C           2.5076   60.8084   77.5282 C.3     1  UNL1        0.2658
     23 C           3.4880   60.9345   78.6708 C.3     1  UNL1        0.1566
     24 N           3.2024   60.0864   79.9107 N.4     1  UNL1        0.2998
     25 C           2.3007   62.4374   80.7119 C.3     1  UNL1        0.0671
     26 C           2.1501   60.9169   80.7557 C.3     1  UNL1        0.1088
     27 C           2.4430   58.7294   79.5539 C.3     1  UNL1        0.1088
     28 C           0.9419   58.6723   79.8662 C.3     1  UNL1        0.0671
     29 C           4.4297   59.6988   80.7584 C.3     1  UNL1        0.1088
     30 C           5.5509   59.0044   80.0158 C.3     1  UNL1        0.0671
     31 C           2.6488   60.4183   69.4744 C.3     1  UNL1        0.0897
     32 C           2.5486   61.8222   68.8646 C.3     1  UNL1        0.0213
     33 C           3.6341   62.1005   67.8076 C.3     1  UNL1        0.0023
     34 C           3.3607   63.4066   67.0380 C.3     1  UNL1        0.0097
     35 C           3.7863   63.3558   65.5720 C.3     1  UNL1        0.0866
     36 C           3.2731   64.5660   64.7918 C.2     1  UNL1        0.2379
     37 O           3.6279   64.8026   63.6232 O.2     1  UNL1       -0.2736
     38 N           2.3987   65.3641   65.4890 N.am    1  UNL1       -0.2359
     39 H           1.9335   65.0098   66.3174 H       1  UNL1        0.1727
     40 N           1.9729   66.6297   65.0302 N.pl3   1  UNL1       -0.2635
     41 H           1.5551   66.5623   64.0914 H       1  UNL1        0.1700
     42 C           2.9196   67.7268   65.0884 C.ar    1  UNL1        0.0597
     43 C           3.7595   68.1042   64.0062 C.ar    1  UNL1        0.0060
     44 C           4.6325   69.1832   64.1896 C.ar    1  UNL1        0.0562
     45 N           4.6819   69.9164   65.3228 N.ar    1  UNL1       -0.2499
     46 C           3.9194   69.5687   66.3576 C.ar    1  UNL1        0.0829
     47 C           4.0341   70.3674   67.4886 C.ar    1  UNL1        0.0305
     48 C           3.3232   70.0869   68.6461 C.ar    1  UNL1        0.0592
     49 CL          3.4696   71.1247   70.0130 Cl      1  UNL1       -0.0822
     50 C           2.5056   68.9693   68.6970 C.ar    1  UNL1        0.0115
     51 C           2.3760   68.1555   67.5585 C.ar    1  UNL1        0.0036
     52 C           3.0433   68.4570   66.3367 C.ar    1  UNL1        0.0320
     53 C           5.5459   69.6668   63.0880 C.3     1  UNL1        0.0455
     54 C           5.7943   68.6437   61.9871 C.3     1  UNL1        0.0066
     55 C           4.4743   68.0771   61.5286 C.3     1  UNL1        0.0052
     56 C           3.8001   67.3790   62.6867 C.3     1  UNL1        0.0289
@<TRIPOS>UNITY_ATOM_ATTR
14 1
charge 1
24 1
charge 1
@<TRIPOS>BOND
     1    25    26    1
     2    26    24    1
     3    24    29    1
     4    24    27    1
     5    24    23    1
     6    29    30    1
     7    27    28    1
     8    23    22    1
     9    22    21    1
    10    21     5    1
    11     5     6   ar
    12     5    10   ar
    13     6     7   ar
    14     7    11    1
    15     7     8   ar
    16    11    12    1
    17    12    13    1
    18    13    14    1
    19    14    15    1
    20    14    19    1
    21    14    17    1
    22    15    16    1
    23    19    20    1
    24    17    18    1
    25     8     9   ar
    26     9     1    1
    27     9    10   ar
    28     1     2    2
    29     1     3   am
    30     3    31    1
    31     3     4    1
    32    31    32    1
    33    32    33    1
    34    33    34    1
    35    34    35    1
    36    35    36    1
    37    36    37    2
    38    36    38   am
    39    38    40    1
    40    38    39    1
    41    40    42    1
    42    40    41    1
    43    42    43   ar
    44    42    52   ar
    45    43    44   ar
    46    43    56    1
    47    44    45   ar
    48    44    53    1
    49    45    46   ar
    50    46    47   ar
    51    46    52   ar
    52    47    48   ar
    53    48    49    1
    54    48    50   ar
    55    50    51   ar
    56    51    52   ar
    57    53    54    1
    58    54    55    1
    59    55    56    1
#	Name:			CHEMBL540657
#	Creating user name:	trannguyen
#	Creation time:		Tue Feb  8 17:54:08 2022


#	Modifying user name:	trannguyen
#	Modification time:	Tue Feb  8 17:54:08 2022

@<TRIPOS>MOLECULE
CHEMBL540657
 55 62 0 0 0
SMALL
GASTEIGER

@<TRIPOS>ATOM
      1 C           2.5857   65.0903   65.1786 C.3     1  UNL1        0.0214
      2 C           1.7972   66.3629   65.4207 C.3     1  UNL1        0.0913
      3 N           7.1726   71.6516   65.9721 N.pl3   1  UNL1       -0.3570
      4 C           6.0664   70.9670   66.4543 C.ar    1  UNL1        0.0416
      5 C           5.5886   71.2880   67.6961 C.ar    1  UNL1        0.0141
      6 C           4.5169   70.5814   68.1990 C.ar    1  UNL1        0.0010
      7 C           3.9101   69.5052   67.4969 C.ar    1  UNL1       -0.0008
      8 C           4.2490   69.2643   66.1412 C.ar    1  UNL1        0.0143
      9 C           5.3192   70.0889   65.6568 C.ar    1  UNL1        0.0153
     10 C           3.5209   68.2308   65.3825 C.2     1  UNL1        0.0482
     11 N           2.5981   67.4369   66.0953 N.pl3   1  UNL1       -0.3018
     12 C           2.3558   67.6320   67.4542 C.3     1  UNL1        0.1191
     13 C           1.4736   66.8099   68.2248 C.2     1  UNL1        0.0118
     14 C           1.1547   67.0155   69.5734 C.2     1  UNL1        0.0391
     15 N           0.3623   66.0979   70.2625 N.pl3   1  UNL1       -0.3572
     16 C           1.8436   67.9892   70.2529 C.2     1  UNL1        0.0136
     17 C           2.7259   68.8030   69.5564 C.2     1  UNL1       -0.0011
     18 C           2.9893   68.6740   68.1592 C.2     1  UNL1       -0.0001
     19 H           7.9454   71.6832   66.6352 H       1  UNL1        0.1424
     20 H           7.6049   71.2939   65.0964 H       1  UNL1        0.1424
     21 H           0.0066   66.4332   71.1558 H       1  UNL1        0.1423
     22 H          -0.3705   65.6504   69.7208 H       1  UNL1        0.1423
     23 C           3.7627   67.9663   63.8685 C.ar    1  UNL1        0.0133
     24 C           4.6449   66.9894   63.3374 C.ar    1  UNL1        0.0012
     25 C           4.9476   66.8538   61.9653 C.ar    1  UNL1        0.0000
     26 C           4.2211   67.5519   61.0232 C.ar    1  UNL1        0.0000
     27 C           3.2608   68.4406   61.4695 C.ar    1  UNL1        0.0000
     28 C           3.1042   68.6977   62.8505 C.ar    1  UNL1        0.0012
     29 C           3.3544   64.6887   66.4418 C.3     1  UNL1        0.0018
     30 C           3.4445   63.1700   66.5218 C.3     1  UNL1        0.0005
     31 C           3.5208   62.6568   67.9604 C.3     1  UNL1        0.0064
     32 C           2.6667   61.3990   68.1715 C.3     1  UNL1        0.0493
     33 C           2.6806   60.9148   69.5784 C.ar    1  UNL1        0.1008
     34 C           2.2361   59.7199   70.1061 C.ar    1  UNL1        0.1132
     35 N           2.4184   59.8621   71.4484 N.ar    1  UNL1       -0.2288
     36 N           2.9741   61.0517   71.7389 N.ar    1  UNL1       -0.0641
     37 N           3.1369   61.7083   70.5970 N.ar    1  UNL1       -0.1331
     38 C           2.0476   58.9424   72.5055 C.3     1  UNL1        0.1503
     39 C           2.5372   59.4266   73.8731 C.3     1  UNL1        0.1138
     40 N           1.4126   59.7484   74.7569 N.pl3   1  UNL1       -0.3312
     41 H           1.2024   60.7450   74.8034 H       1  UNL1        0.1469
     42 C           1.2086   59.1761   76.0394 C.ar    1  UNL1        0.0432
     43 C           0.1186   58.2696   76.1464 C.ar    1  UNL1        0.0045
     44 C          -0.1945   57.7342   77.4040 C.ar    1  UNL1        0.0561
     45 N           0.5468   57.9873   78.4998 N.ar    1  UNL1       -0.2499
     46 C           1.5543   58.8351   78.4292 C.ar    1  UNL1        0.0820
     47 C           2.2502   59.0605   79.6039 C.ar    1  UNL1        0.0191
     48 C           3.2940   59.9646   79.7046 C.ar    1  UNL1        0.0015
     49 C           3.6259   60.7211   78.5910 C.ar    1  UNL1        0.0001
     50 C           2.9296   60.5162   77.3989 C.ar    1  UNL1        0.0027
     51 C           1.9254   59.5337   77.2327 C.ar    1  UNL1        0.0305
     52 C          -1.3494   56.7978   77.6303 C.3     1  UNL1        0.0455
     53 C          -2.3685   56.7983   76.5004 C.3     1  UNL1        0.0066
     54 C          -1.6447   56.6902   75.1673 C.3     1  UNL1        0.0052
     55 C          -0.7367   57.9034   74.9488 C.3     1  UNL1        0.0288
@<TRIPOS>BOND
     1     3     4    1
     2     3    19    1
     3     3    20    1
     4     4     5   ar
     5     4     9   ar
     6     5     6   ar
     7     6     7   ar
     8     7     8   ar
     9     7    18    2
    10     8     9   ar
    11     8    10    2
    12    10    23    1
    13    10    11    1
    14    23    24   ar
    15    23    28   ar
    16    24    25   ar
    17    25    26   ar
    18    26    27   ar
    19    27    28   ar
    20    11     2    1
    21    11    12    1
    22     2     1    1
    23     1    29    1
    24    29    30    1
    25    30    31    1
    26    31    32    1
    27    32    33    1
    28    33    34   ar
    29    33    37   ar
    30    34    35   ar
    31    35    38    1
    32    35    36   ar
    33    38    39    1
    34    39    40    1
    35    40    42    1
    36    40    41    1
    37    42    43   ar
    38    42    51   ar
    39    43    44   ar
    40    43    55    1
    41    44    45   ar
    42    44    52    1
    43    45    46   ar
    44    46    47   ar
    45    46    51   ar
    46    47    48   ar
    47    48    49   ar
    48    49    50   ar
    49    50    51   ar
    50    52    53    1
    51    53    54    1
    52    54    55    1
    53    36    37   ar
    54    12    13    1
    55    12    18    1
    56    13    14    2
    57    14    15    1
    58    14    16    1
    59    15    21    1
    60    15    22    1
    61    16    17    2
    62    17    18    1
#	Name:			CHEMBL545317
#	Creating user name:	trannguyen
#	Creation time:		Tue Feb  8 17:54:08 2022


#	Modifying user name:	trannguyen
#	Modification time:	Tue Feb  8 17:54:08 2022

@<TRIPOS>MOLECULE
CHEMBL545317
 29 32 0 0 0
SMALL
GASTEIGER

@<TRIPOS>ATOM
      1 C           0.9990   55.4470   77.8998 C.3     1  UNL1        0.0080
      2 C           0.6316   61.5469   77.0225 C.ar    1  UNL1        0.1721
      3 C           0.4712   60.3270   76.3418 C.ar    1  UNL1        0.0359
      4 C           0.6821   59.1196   77.0250 C.ar    1  UNL1       -0.0158
      5 C           0.9532   59.1560   78.3629 C.ar    1  UNL1        0.0340
      6 C           1.0664   60.3088   79.0845 C.ar    1  UNL1        0.0426
      7 C           0.9471   61.5485   78.4347 C.ar    1  UNL1        0.1725
      8 C           1.0773   57.8297   78.8327 C.2     1  UNL1        0.1727
      9 O           0.7728   57.5120   79.9755 O.2     1  UNL1       -0.2913
     10 C           1.3319   56.9195   77.6760 C.3     1  UNL1        0.0663
     11 C           0.5655   57.6927   76.5323 C.3     1  UNL1        0.0342
     12 C          -0.7096   63.3281   75.9711 C.3     1  UNL1        0.2526
     13 O           0.4642   62.6984   76.2949 O.3     1  UNL1       -0.4684
     14 O           1.1247   62.6515   79.1668 O.3     1  UNL1       -0.4684
     15 C           2.0682   62.7351   80.1829 C.3     1  UNL1        0.2526
     16 C          -0.0616   54.8261   76.8896 C.3     1  UNL1        0.0005
     17 C          -1.4530   54.5303   77.5647 C.3     1  UNL1        0.0028
     18 C          -1.9183   55.4220   78.7780 C.3     1  UNL1        0.0174
     19 C          -2.4901   56.8471   78.4110 C.3     1  UNL1        0.0724
     20 N          -3.3506   56.8872   77.1849 N.3     1  UNL1       -0.2690
     21 C          -2.6529   56.1605   76.1312 C.3     1  UNL1        0.0724
     22 C          -2.5671   54.6635   76.5406 C.3     1  UNL1        0.0174
     23 C          -4.8037   56.5080   77.3078 C.3     1  UNL1        0.0991
     24 C          -5.7863   57.6594   76.9225 C.ar    1  UNL1       -0.0061
     25 C          -5.3465   58.8880   76.3500 C.ar    1  UNL1       -0.0029
     26 C          -6.2208   59.9489   76.1384 C.ar    1  UNL1       -0.0003
     27 C          -7.5698   59.8020   76.4189 C.ar    1  UNL1       -0.0000
     28 C          -8.0505   58.5804   76.8953 C.ar    1  UNL1       -0.0003
     29 C          -7.1673   57.5183   77.1588 C.ar    1  UNL1       -0.0029
@<TRIPOS>BOND
     1    12    13    1
     2    13     2    1
     3     2     3   ar
     4     2     7   ar
     5     3     4   ar
     6     4     5   ar
     7     4    11    1
     8     5     6   ar
     9     5     8    1
    10     6     7   ar
    11     7    14    1
    12    14    15    1
    13     8     9    2
    14     8    10    1
    15    10     1    1
    16    10    11    1
    17     1    16    1
    18    16    17    1
    19    17    18    1
    20    17    22    1
    21    18    19    1
    22    19    20    1
    23    20    23    1
    24    20    21    1
    25    23    24    1
    26    24    25   ar
    27    24    29   ar
    28    25    26   ar
    29    26    27   ar
    30    27    28   ar
    31    28    29   ar
    32    21    22    1
#	Name:			CHEMBL553187
#	Creating user name:	trannguyen
#	Creation time:		Tue Feb  8 17:54:08 2022


#	Modifying user name:	trannguyen
#	Modification time:	Tue Feb  8 17:54:08 2022

@<TRIPOS>MOLECULE
CHEMBL553187
 28 30 0 0 0
SMALL
GASTEIGER

@<TRIPOS>ATOM
      1 C          -8.3039   61.5104   76.6065 C.3     1  UNL1        0.0882
      2 N          -7.9015   60.6613   75.5102 N.pl3   1  UNL1       -0.3167
      3 H          -8.3727   60.7468   74.5964 H       1  UNL1        0.1482
      4 C          -6.8432   59.7260   75.6358 C.ar    1  UNL1        0.1503
      5 C          -6.8229   58.7685   76.6613 C.ar    1  UNL1        0.0375
      6 C          -5.7107   57.9522   76.7974 C.ar    1  UNL1        0.0238
      7 C          -4.6598   58.0764   75.8850 C.ar    1  UNL1        0.1030
      8 N          -4.7579   58.9696   74.8681 N.ar    1  UNL1       -0.1468
      9 N          -5.8098   59.7842   74.7590 N.ar    1  UNL1       -0.1331
     10 C          -3.4107   57.3253   76.0558 C.ar    1  UNL1        0.0194
     11 C          -2.2123   57.8457   75.5404 C.ar    1  UNL1        0.0016
     12 C          -1.0372   57.0985   75.6113 C.ar    1  UNL1        0.0000
     13 C          -1.0431   55.8440   76.2261 C.ar    1  UNL1        0.0000
     14 C          -2.2290   55.3303   76.7610 C.ar    1  UNL1        0.0000
     15 C          -3.4164   56.0600   76.6601 C.ar    1  UNL1        0.0016
     16 C          -7.2071   62.5113   76.9259 C.3     1  UNL1        0.0213
     17 C          -6.8127   62.3888   78.3898 C.3     1  UNL1        0.0032
     18 C          -5.4740   61.6801   78.5116 C.3     1  UNL1        0.0174
     19 C          -4.4723   62.5541   79.2718 C.3     1  UNL1        0.0724
     20 C          -2.2745   63.1371   78.4567 C.3     1  UNL1        0.0899
     21 N          -3.0904   62.0609   79.0687 N.3     1  UNL1       -0.2678
     22 C          -3.0089   60.8553   78.2081 C.3     1  UNL1        0.0992
     23 C          -2.4363   59.5664   78.8050 C.ar    1  UNL1       -0.0061
     24 C          -1.0524   59.3609   78.6419 C.ar    1  UNL1       -0.0029
     25 C          -0.4335   58.2048   79.1222 C.ar    1  UNL1       -0.0003
     26 C          -1.1882   57.2192   79.7542 C.ar    1  UNL1       -0.0000
     27 C          -2.5572   57.4062   79.9432 C.ar    1  UNL1       -0.0003
     28 C          -3.1803   58.5802   79.4995 C.ar    1  UNL1       -0.0029
@<TRIPOS>BOND
     1    20    21    1
     2    21    19    1
     3    21    22    1
     4    19    18    1
     5    18    17    1
     6    17    16    1
     7    16     1    1
     8     1     2    1
     9     2     4    1
    10     2     3    1
    11     4     5   ar
    12     4     9   ar
    13     5     6   ar
    14     6     7   ar
    15     7    10    1
    16     7     8   ar
    17    10    11   ar
    18    10    15   ar
    19    11    12   ar
    20    12    13   ar
    21    13    14   ar
    22    14    15   ar
    23     8     9   ar
    24    22    23    1
    25    23    24   ar
    26    23    28   ar
    27    24    25   ar
    28    25    26   ar
    29    26    27   ar
    30    27    28   ar
#	Name:			CHEMBL555247
#	Creating user name:	trannguyen
#	Creation time:		Tue Feb  8 17:54:08 2022


#	Modifying user name:	trannguyen
#	Modification time:	Tue Feb  8 17:54:08 2022

@<TRIPOS>MOLECULE
CHEMBL555247
 66 69 0 0 0
SMALL
GASTEIGER

@<TRIPOS>ATOM
      1 C           3.7208   69.7621   66.5265 C.ar    1  UNL1        0.1755
      2 C           3.1532   68.5252   66.1117 C.ar    1  UNL1        0.0770
      3 C           2.2200   67.8827   66.9417 C.ar    1  UNL1        0.1464
      4 C           2.0814   68.2596   68.1787 C.ar    1  UNL1        0.0905
      5 C           2.8698   69.2997   68.6887 C.ar    1  UNL1        0.0476
      6 C           3.5799   70.1409   67.7979 C.ar    1  UNL1        0.1729
      7 C           1.1136   67.6054   69.0277 C.2     1  UNL1        0.2489
      8 O          -0.0784   67.8804   68.9249 O.2     1  UNL1       -0.2700
      9 N           1.5338   66.6599   69.9656 N.am    1  UNL1       -0.3008
     10 H           2.4898   66.4394   70.0480 H       1  UNL1        0.1497
     11 C           0.5725   66.0100   70.8090 C.3     1  UNL1        0.0897
     12 C           1.2966   65.1937   71.8672 C.3     1  UNL1        0.0213
     13 C           0.3194   64.8070   72.9653 C.3     1  UNL1        0.0023
     14 C           1.0903   64.3167   74.1800 C.3     1  UNL1        0.0097
     15 C           0.3719   64.7537   75.4463 C.3     1  UNL1        0.0866
     16 C          -0.6794   63.7654   75.7840 C.2     1  UNL1        0.2379
     17 O          -1.8616   64.0955   75.7633 O.2     1  UNL1       -0.2736
     18 N          -0.3254   62.4584   76.1258 N.am    1  UNL1       -0.2359
     19 H           1.6712   62.2508   75.9490 H       1  UNL1        0.1727
     20 N          -0.9303   61.5878   76.4040 N.pl3   1  UNL1       -0.2635
     21 H          -1.1535   61.8447   76.1694 H       1  UNL1        0.1700
     22 C           0.0903   60.5149   77.1588 C.ar    1  UNL1        0.0597
     23 C          -0.4179   59.4916   77.1501 C.ar    1  UNL1        0.0060
     24 C           1.2630   58.6172   78.1707 C.ar    1  UNL1        0.0562
     25 N           2.4118   58.4911   78.8121 N.ar    1  UNL1       -0.2499
     26 C           2.2867   59.2529   78.6102 C.ar    1  UNL1        0.0829
     27 C           3.8313   59.1939   79.4120 C.ar    1  UNL1        0.0305
     28 C           4.3190   60.1346   79.4097 C.ar    1  UNL1        0.0592
     29 CL          6.1575   59.9938   80.3594 Cl      1  UNL1       -0.0822
     30 C           3.7106   61.2489   78.8054 C.ar    1  UNL1        0.0115
     31 C           1.5785   61.2373   77.7719 C.ar    1  UNL1        0.0036
     32 C           0.3471   60.0987   77.4746 C.ar    1  UNL1        0.0320
     33 C           1.3769   57.6364   78.4143 C.3     1  UNL1        0.0455
     34 C          -3.6145   57.0673   76.7321 C.3     1  UNL1        0.0066
     35 C          -3.5931   57.9946   75.5113 C.3     1  UNL1        0.0052
     36 C          -2.0465   59.5978   76.3047 C.3     1  UNL1        0.0289
     37 O           4.4390   70.4883   65.6451 O.3     1  UNL1       -0.4659
     38 C           5.0556   69.8634   64.5713 C.3     1  UNL1        0.2659
     39 C           4.0416   69.0027   63.8354 C.3     1  UNL1        0.1566
     40 N           4.5845   68.6187   62.5244 N.4     1  UNL1        0.2998
     41 C           4.5456   70.0410   60.5403 C.3     1  UNL1        0.0671
     42 C           5.2029   69.7906   61.8878 C.3     1  UNL1        0.1088
     43 C           3.4977   68.1148   61.6725 C.3     1  UNL1        0.1088
     44 C           2.1767   68.2291   62.4158 C.3     1  UNL1        0.0671
     45 C           5.5959   67.5668   62.7019 C.3     1  UNL1        0.1088
     46 C           6.1710   67.6488   64.1066 C.3     1  UNL1        0.0671
     47 O           4.1054   71.3066   68.2280 O.3     1  UNL1       -0.4660
     48 C           5.3883   71.3365   68.7543 C.3     1  UNL1        0.2659
     49 C           5.5143   70.2831   69.8427 C.3     1  UNL1        0.1566
     50 N           6.6798   70.6744   68.3648 N.4     1  UNL1        0.2998
     51 C           6.8443   70.8902   69.4605 C.3     1  UNL1        0.1088
     52 C           7.4776   69.8518   72.1789 C.3     1  UNL1        0.0671
     53 C           7.0718   71.9512   66.9552 C.3     1  UNL1        0.1088
     54 C           6.8056   71.6404   67.9541 C.3     1  UNL1        0.0671
     55 C           7.2890   69.5732   67.2010 C.3     1  UNL1        0.1088
     56 C           9.7461   70.2136   69.6603 C.3     1  UNL1        0.0671
     57 O           1.4671   66.8744   66.4555 O.3     1  UNL1       -0.4688
     58 C           1.9985   65.5971   66.3575 C.3     1  UNL1        0.2658
     59 C           2.5295   65.3759   64.9504 C.3     1  UNL1        0.1566
     60 N           3.6669   64.4457   64.9966 N.4     1  UNL1        0.2998
     61 C           4.7392   64.9390   64.1204 C.3     1  UNL1        0.1088
     62 C           5.7500   63.8290   63.8825 C.3     1  UNL1        0.0671
     63 C           3.2326   63.1177   64.5396 C.3     1  UNL1        0.1088
     64 C           4.2005   62.6026   63.4870 C.3     1  UNL1        0.0671
     65 C           4.1661   64.3502   66.3759 C.3     1  UNL1        0.1088
     66 C           3.8444   62.9746   66.9370 C.3     1  UNL1        0.0671
@<TRIPOS>UNITY_ATOM_ATTR
40 1
charge 1
50 1
charge 1
60 1
charge 1
@<TRIPOS>BOND
     1    41    42    1
     2    42    40    1
     3    40    43    1
     4    40    45    1
     5    40    39    1
     6    43    44    1
     7    45    46    1
     8    39    38    1
     9    38    37    1
    10    37     1    1
    11     1     2   ar
    12     1     6   ar
    13     2     3   ar
    14     3    57    1
    15     3     4   ar
    16    57    58    1
    17    58    59    1
    18    59    60    1
    19    60    65    1
    20    60    63    1
    21    60    61    1
    22    65    66    1
    23    63    64    1
    24    61    62    1
    25     4     7    1
    26     4     5   ar
    27     7     8    2
    28     7     9   am
    29     9    11    1
    30     9    10    1
    31    11    12    1
    32    12    13    1
    33    13    14    1
    34    14    15    1
    35    15    16    1
    36    16    17    2
    37    16    18   am
    38    18    20    1
    39    18    19    1
    40    20    22    1
    41    20    21    1
    42    22    23   ar
    43    22    32   ar
    44    23    24   ar
    45    23    36    1
    46    24    25   ar
    47    24    33    1
    48    25    26   ar
    49    26    27   ar
    50    26    32   ar
    51    27    28   ar
    52    28    29    1
    53    28    30   ar
    54    30    31   ar
    55    31    32   ar
    56    33    34    1
    57    34    35    1
    58    35    36    1
    59     5     6   ar
    60     6    47    1
    61    47    48    1
    62    48    49    1
    63    49    50    1
    64    50    55    1
    65    50    53    1
    66    50    51    1
    67    55    56    1
    68    53    54    1
    69    51    52    1
#	Name:			CHEMBL557422
#	Creating user name:	trannguyen
#	Creation time:		Tue Feb  8 17:54:08 2022


#	Modifying user name:	trannguyen
#	Modification time:	Tue Feb  8 17:54:08 2022

@<TRIPOS>MOLECULE
CHEMBL557422
 27 31 0 0 0
SMALL
GASTEIGER

@<TRIPOS>ATOM
      1 C          -0.5030   52.2989   77.7372 C.3     1  UNL1        0.1305
      2 N          -0.8317   53.5587   77.0545 N.ar    1  UNL1       -0.3228
      3 C          -2.1768   53.7509   76.6496 C.ar    1  UNL1        0.0760
      4 C          -2.4246   54.6902   75.7201 C.ar    1  UNL1        0.0203
      5 C          -1.6494   55.9241   75.9530 C.ar    1  UNL1        0.0237
      6 C          -2.2948   57.1031   76.0311 C.ar    1  UNL1        0.0827
      7 N          -3.6523   57.0468   75.9234 N.ar    1  UNL1       -0.2453
      8 C          -4.3726   57.8971   76.5667 C.ar    1  UNL1        0.0818
      9 C          -5.7812   57.4999   76.8049 C.ar    1  UNL1        0.0258
     10 C          -6.6117   58.3156   77.4583 C.ar    1  UNL1        0.0361
     11 BR         -8.3396   57.7715   77.9081 Br      1  UNL1       -0.0489
     12 C          -6.1959   59.6444   77.8410 C.ar    1  UNL1        0.0068
     13 C          -4.9312   60.0696   77.6844 C.ar    1  UNL1        0.0021
     14 C          -3.8977   59.2003   77.1371 C.ar    1  UNL1        0.0206
     15 C          -2.5625   59.4082   77.0150 C.ar    1  UNL1        0.0405
     16 C          -1.6694   58.3199   76.5584 C.ar    1  UNL1        0.0357
     17 C          -0.3055   58.3537   76.7241 C.ar    1  UNL1        0.0756
     18 C           0.5253   57.0670   76.5012 C.ar    1  UNL1        0.2090
     19 O           1.7496   57.0768   76.5020 O.2     1  UNL1       -0.2852
     20 C          -0.2750   55.8152   76.4128 C.ar    1  UNL1        0.0588
     21 C           0.1000   54.6130   76.8971 C.ar    1  UNL1        0.0792
     22 N           0.3411   59.4853   77.4443 N.pl3   1  UNL1       -0.3440
     23 C           0.4176   59.0966   78.9195 C.3     1  UNL1        0.0963
     24 C           1.7627   59.7926   76.9430 C.3     1  UNL1        0.0963
     25 C          -0.4447   60.7935   77.2352 C.3     1  UNL1        0.1462
     26 C          -1.9365   60.7084   77.3851 C.2     1  UNL1        0.1917
     27 O          -2.5735   61.7071   77.7065 O.2     1  UNL1       -0.2896
@<TRIPOS>BOND
     1     1     2    1
     2     2     3   ar
     3     2    21   ar
     4     3     4   ar
     5     4     5   ar
     6     5     6   ar
     7     5    20    1
     8     6     7   ar
     9     6    16   ar
    10     7     8   ar
    11     8     9   ar
    12     8    14   ar
    13     9    10   ar
    14    10    11    1
    15    10    12   ar
    16    12    13   ar
    17    13    14   ar
    18    14    15   ar
    19    15    16   ar
    20    15    26    1
    21    16    17   ar
    22    17    18   ar
    23    17    22    1
    24    18    19    2
    25    18    20   ar
    26    20    21   ar
    27    22    23    1
    28    22    24    1
    29    22    25    1
    30    25    26    1
    31    26    27    2
#	Name:			CHEMBL593933
#	Creating user name:	trannguyen
#	Creation time:		Tue Feb  8 17:54:08 2022


#	Modifying user name:	trannguyen
#	Modification time:	Tue Feb  8 17:54:08 2022

@<TRIPOS>MOLECULE
CHEMBL593933
 30 33 0 0 0
SMALL
GASTEIGER

@<TRIPOS>ATOM
      1 C          -3.1810   56.0153   79.7833 C.3     1  UNL1        0.0301
      2 C          -1.9917   55.2446   79.3201 C.2     1  UNL1       -0.0319
      3 C          -1.2944   55.4049   78.1783 C.2     1  UNL1       -0.0204
      4 C          -0.0255   54.6169   77.8959 C.3     1  UNL1        0.0472
      5 C          -0.4492   53.4045   77.1370 C.2     1  UNL1       -0.0303
      6 C          -1.2350   53.6979   76.0627 C.2     1  UNL1       -0.0453
      7 C          -1.8085   52.6563   75.1535 C.3     1  UNL1        0.0261
      8 C          -1.6116   55.2098   75.7589 C.3     1  UNL1        0.0523
      9 C          -1.4303   56.3004   76.9594 C.3     1  UNL1        0.1231
     10 C          -0.1217   57.2014   77.0152 C.ar    1  UNL1        0.0133
     11 C          -0.0550   58.4674   76.2976 C.ar    1  UNL1        0.0038
     12 C           0.9606   59.3345   76.4793 C.ar    1  UNL1        0.0603
     13 C           2.0637   58.9890   77.4003 C.ar    1  UNL1        0.2575
     14 O           2.9762   59.7735   77.6138 O.2     1  UNL1       -0.2672
     15 N           1.9997   57.7404   77.9669 N.ar    1  UNL1       -0.3247
     16 H           2.7685   57.5065   78.5830 H       1  UNL1        0.1686
     17 C           0.9538   56.8647   77.8047 C.ar    1  UNL1        0.0347
     18 C           1.0931   55.4733   78.5038 C.3     1  UNL1        0.0518
     19 N          -2.6406   57.1318   77.1045 N.2     1  UNL1       -0.2643
     20 C          -3.5774   57.0222   76.2317 C.2     1  UNL1        0.0967
     21 C          -4.8432   57.7681   76.3612 C.ar    1  UNL1        0.0529
     22 C          -4.9925   59.0058   75.7274 C.ar    1  UNL1        0.0077
     23 C          -6.1510   59.7538   75.9369 C.ar    1  UNL1        0.0372
     24 C          -7.1399   59.2859   76.8027 C.ar    1  UNL1        0.1418
     25 C          -7.0106   58.0241   77.3906 C.ar    1  UNL1        0.0738
     26 C          -5.8736   57.2439   77.1530 C.ar    1  UNL1        0.1432
     27 O          -8.2093   60.1203   76.9878 O.3     1  UNL1       -0.4713
     28 C          -8.6065   60.8604   75.8357 C.3     1  UNL1        0.2525
     29 O          -5.6789   56.0081   77.7168 O.3     1  UNL1       -0.4713
     30 C          -6.7763   55.4962   78.4685 C.3     1  UNL1        0.2525
@<TRIPOS>BOND
     1     1     2    1
     2     2     3    2
     3     3     4    1
     4     3     9    1
     5     4     5    1
     6     4    18    1
     7     5     6    2
     8     6     8    1
     9     6     7    1
    10     8     9    1
    11     9    10    1
    12     9    19    1
    13    19    20    2
    14    20    21    1
    15    21    22   ar
    16    21    26   ar
    17    22    23   ar
    18    23    24   ar
    19    24    27    1
    20    24    25   ar
    21    27    28    1
    22    25    26   ar
    23    26    29    1
    24    29    30    1
    25    10    11   ar
    26    10    17   ar
    27    11    12   ar
    28    12    13   ar
    29    13    15   ar
    30    13    14    2
    31    15    17   ar
    32    15    16    1
    33    17    18    1
#	Name:			CHEMBL594186
#	Creating user name:	trannguyen
#	Creation time:		Tue Feb  8 17:54:08 2022


#	Modifying user name:	trannguyen
#	Modification time:	Tue Feb  8 17:54:08 2022

@<TRIPOS>MOLECULE
CHEMBL594186
 33 36 0 0 0
SMALL
GASTEIGER

@<TRIPOS>ATOM
      1 C           1.7380   69.0961   65.2612 C.3     1  UNL1        0.0301
      2 C           2.1585   68.8451   63.8527 C.2     1  UNL1       -0.0319
      3 C           3.3369   68.4005   63.3737 C.2     1  UNL1       -0.0204
      4 C           3.4797   67.9865   61.9095 C.3     1  UNL1        0.0472
      5 C           4.1081   69.1548   61.2143 C.2     1  UNL1       -0.0303
      6 C           5.2621   69.5825   61.7996 C.2     1  UNL1       -0.0453
      7 C           6.0797   70.7266   61.2932 C.3     1  UNL1        0.0261
      8 C           5.7957   68.8327   63.0773 C.3     1  UNL1        0.0523
      9 C           4.6842   68.0435   63.9627 C.3     1  UNL1        0.1231
     10 C           4.7321   66.4617   63.8238 C.ar    1  UNL1        0.0133
     11 C           5.5862   65.6853   64.7071 C.ar    1  UNL1        0.0038
     12 C           5.5844   64.3431   64.6839 C.ar    1  UNL1        0.0603
     13 C           4.7146   63.6246   63.7258 C.ar    1  UNL1        0.2575
     14 O           4.6987   62.3930   63.6765 O.2     1  UNL1       -0.2672
     15 N           3.9477   64.4070   62.9033 N.ar    1  UNL1       -0.3247
     16 H           3.3605   63.9080   62.2486 H       1  UNL1        0.1686
     17 C           3.9302   65.7849   62.9392 C.ar    1  UNL1        0.0347
     18 C           3.0319   66.5095   61.8847 C.3     1  UNL1        0.0518
     19 N           4.8715   68.3947   65.3801 N.2     1  UNL1       -0.2648
     20 C           5.0013   69.6315   65.7089 C.2     1  UNL1        0.0894
     21 C           5.3524   70.0830   67.0915 C.2     1  UNL1       -0.0035
     22 C           6.6516   69.9993   67.4368 C.2     1  UNL1       -0.0027
     23 C           7.1925   70.4737   68.7083 C.ar    1  UNL1       -0.0003
     24 C           8.3302   71.2848   68.7287 C.ar    1  UNL1       -0.0000
     25 C           8.8675   71.7031   69.9462 C.ar    1  UNL1       -0.0000
     26 C           8.2677   71.3153   71.1443 C.ar    1  UNL1       -0.0000
     27 C           7.1263   70.5142   71.1275 C.ar    1  UNL1       -0.0000
     28 C           6.5867   70.0956   69.9111 C.ar    1  UNL1       -0.0000
     29 C           4.2487   70.7093   67.9124 C.3     1  UNL1        0.0279
     30 C           2.9331   69.9163   67.8767 C.3     1  UNL1        0.0047
     31 C           2.7841   69.0197   69.1191 C.3     1  UNL1        0.0003
     32 C           1.7704   67.8885   68.9095 C.3     1  UNL1        0.0000
     33 C           1.7628   66.8781   70.0528 C.3     1  UNL1        0.0000
@<TRIPOS>BOND
     1     1     2    1
     2     2     3    2
     3     3     4    1
     4     3     9    1
     5     4     5    1
     6     4    18    1
     7     5     6    2
     8     6     8    1
     9     6     7    1
    10     8     9    1
    11     9    10    1
    12     9    19    1
    13    19    20    2
    14    20    21    1
    15    21    22    2
    16    21    29    1
    17    22    23    1
    18    23    24   ar
    19    23    28   ar
    20    24    25   ar
    21    25    26   ar
    22    26    27   ar
    23    27    28   ar
    24    29    30    1
    25    30    31    1
    26    31    32    1
    27    32    33    1
    28    10    11   ar
    29    10    17   ar
    30    11    12   ar
    31    12    13   ar
    32    13    15   ar
    33    13    14    2
    34    15    17   ar
    35    15    16    1
    36    17    18    1
#	Name:			CHEMBL594187
#	Creating user name:	trannguyen
#	Creation time:		Tue Feb  8 17:54:08 2022


#	Modifying user name:	trannguyen
#	Modification time:	Tue Feb  8 17:54:08 2022

@<TRIPOS>MOLECULE
CHEMBL594187
 29 32 0 0 0
SMALL
GASTEIGER

@<TRIPOS>ATOM
      1 C          -2.0265   54.8685   80.7397 C.3     1  UNL1        0.0301
      2 C          -1.1870   54.2197   79.6899 C.2     1  UNL1       -0.0319
      3 C          -1.1085   54.4660   78.3658 C.2     1  UNL1       -0.0204
      4 C          -0.0437   53.7890   77.5140 C.3     1  UNL1        0.0472
      5 C          -0.7304   52.6163   76.8801 C.2     1  UNL1       -0.0303
      6 C          -1.8768   52.9369   76.2156 C.2     1  UNL1       -0.0453
      7 C          -2.7362   51.9402   75.5073 C.3     1  UNL1        0.0261
      8 C          -2.3388   54.4390   76.1651 C.3     1  UNL1        0.0523
      9 C          -1.8105   55.3817   77.3774 C.3     1  UNL1        0.1231
     10 C          -0.6816   56.4037   76.9428 C.ar    1  UNL1        0.0133
     11 C          -1.0443   57.6769   76.3371 C.ar    1  UNL1        0.0038
     12 C          -0.1134   58.5819   76.0103 C.ar    1  UNL1        0.0603
     13 C           1.3208   58.2983   76.2601 C.ar    1  UNL1        0.2575
     14 O           2.1958   59.1234   75.9851 O.2     1  UNL1       -0.2672
     15 N           1.6038   57.0674   76.7893 N.ar    1  UNL1       -0.3247
     16 H           2.5858   56.8701   76.9381 H       1  UNL1        0.1686
     17 C           0.6510   56.1325   77.1296 C.ar    1  UNL1        0.0347
     18 C           1.1676   54.7412   77.6198 C.3     1  UNL1        0.0518
     19 N          -2.9505   56.1142   77.9653 N.2     1  UNL1       -0.2648
     20 C          -4.1144   55.8048   77.5042 C.2     1  UNL1        0.0895
     21 C          -5.3775   56.4445   77.9622 C.2     1  UNL1       -0.0031
     22 C          -5.7271   56.2473   79.4045 C.3     1  UNL1        0.0326
     23 C          -6.0770   57.0954   77.0096 C.2     1  UNL1       -0.0027
     24 C          -7.3504   57.8262   77.1620 C.ar    1  UNL1       -0.0003
     25 C          -8.5635   57.1335   77.0250 C.ar    1  UNL1       -0.0000
     26 C          -9.7871   57.8042   77.1402 C.ar    1  UNL1       -0.0000
     27 C          -9.8137   59.1762   77.3793 C.ar    1  UNL1       -0.0000
     28 C          -8.6203   59.8784   77.4945 C.ar    1  UNL1       -0.0000
     29 C          -7.4027   59.2089   77.3739 C.ar    1  UNL1       -0.0000
@<TRIPOS>BOND
     1     1     2    1
     2     2     3    2
     3     3     4    1
     4     3     9    1
     5     4     5    1
     6     4    18    1
     7     5     6    2
     8     6     8    1
     9     6     7    1
    10     8     9    1
    11     9    10    1
    12     9    19    1
    13    19    20    2
    14    20    21    1
    15    21    22    1
    16    21    23    2
    17    23    24    1
    18    24    25   ar
    19    24    29   ar
    20    25    26   ar
    21    26    27   ar
    22    27    28   ar
    23    28    29   ar
    24    10    11   ar
    25    10    17   ar
    26    11    12   ar
    27    12    13   ar
    28    13    15   ar
    29    13    14    2
    30    15    17   ar
    31    15    16    1
    32    17    18    1
#	Name:			CHEMBL594870
#	Creating user name:	trannguyen
#	Creation time:		Tue Feb  8 17:54:08 2022


#	Modifying user name:	trannguyen
#	Modification time:	Tue Feb  8 17:54:08 2022

@<TRIPOS>MOLECULE
CHEMBL594870
 28 31 0 0 0
SMALL
GASTEIGER

@<TRIPOS>ATOM
      1 C          -2.1431   58.0824   75.3795 C.3     1  UNL1        0.0301
      2 C          -2.7529   59.0811   76.3046 C.2     1  UNL1       -0.0319
      3 C          -3.8527   58.8848   77.0575 C.2     1  UNL1       -0.0204
      4 C          -4.7489   57.6635   77.0192 C.3     1  UNL1        0.0472
      5 C          -4.3459   56.8251   78.1922 C.2     1  UNL1       -0.0303
      6 C          -4.3466   57.4955   79.3794 C.2     1  UNL1       -0.0453
      7 C          -3.9969   56.8551   80.6855 C.3     1  UNL1        0.0261
      8 C          -4.7534   59.0216   79.4031 C.3     1  UNL1        0.0523
      9 C          -4.5727   59.8289   78.0025 C.3     1  UNL1        0.1231
     10 C          -5.9065   60.1584   77.2154 C.ar    1  UNL1        0.0133
     11 C          -6.6134   61.4033   77.4733 C.ar    1  UNL1        0.0038
     12 C          -7.6515   61.7853   76.7134 C.ar    1  UNL1        0.0603
     13 C          -8.1094   60.9227   75.5986 C.ar    1  UNL1        0.2575
     14 O          -9.0413   61.2617   74.8690 O.2     1  UNL1       -0.2672
     15 N          -7.4440   59.7361   75.4418 N.ar    1  UNL1       -0.3247
     16 H          -7.7624   59.1534   74.6787 H       1  UNL1        0.1686
     17 C          -6.3630   59.3514   76.2022 C.ar    1  UNL1        0.0347
     18 C          -5.7276   57.9607   75.8666 C.3     1  UNL1        0.0518
     19 N          -3.8018   61.0808   78.2193 N.2     1  UNL1       -0.2644
     20 C          -3.0476   61.0817   79.2666 C.2     1  UNL1        0.0937
     21 C          -2.1961   62.2144   79.6416 C.ar    1  UNL1        0.0189
     22 C          -0.8532   61.9547   79.9165 C.ar    1  UNL1        0.0046
     23 C          -0.0099   63.0081   80.2617 C.ar    1  UNL1        0.0369
     24 C          -0.4977   64.3168   80.3158 C.ar    1  UNL1        0.1387
     25 C          -1.8413   64.5670   80.0180 C.ar    1  UNL1        0.0369
     26 C          -2.6974   63.5133   79.6877 C.ar    1  UNL1        0.0046
     27 O           0.4324   65.2547   80.6696 O.3     1  UNL1       -0.4714
     28 C           1.7788   64.8069   80.7578 C.3     1  UNL1        0.2525
@<TRIPOS>BOND
     1     1     2    1
     2     2     3    2
     3     3     4    1
     4     3     9    1
     5     4     5    1
     6     4    18    1
     7     5     6    2
     8     6     8    1
     9     6     7    1
    10     8     9    1
    11     9    10    1
    12     9    19    1
    13    19    20    2
    14    20    21    1
    15    21    22   ar
    16    21    26   ar
    17    22    23   ar
    18    23    24   ar
    19    24    27    1
    20    24    25   ar
    21    27    28    1
    22    25    26   ar
    23    10    11   ar
    24    10    17   ar
    25    11    12   ar
    26    12    13   ar
    27    13    15   ar
    28    13    14    2
    29    15    17   ar
    30    15    16    1
    31    17    18    1
#	Name:			CHEMBL595114
#	Creating user name:	trannguyen
#	Creation time:		Tue Feb  8 17:54:08 2022


#	Modifying user name:	trannguyen
#	Modification time:	Tue Feb  8 17:54:08 2022

@<TRIPOS>MOLECULE
CHEMBL595114
 28 31 0 0 0
SMALL
GASTEIGER

@<TRIPOS>ATOM
      1 C          -4.1445   55.4573   79.5312 C.3     1  UNL1        0.0301
      2 C          -2.7537   54.9322   79.4084 C.2     1  UNL1       -0.0319
      3 C          -1.8113   55.2267   78.4908 C.2     1  UNL1       -0.0204
      4 C          -0.5190   54.4178   78.4124 C.3     1  UNL1        0.0472
      5 C          -0.8198   53.2897   77.4649 C.2     1  UNL1       -0.0303
      6 C          -1.4071   53.6773   76.2961 C.2     1  UNL1       -0.0453
      7 C          -1.7685   52.7271   75.1988 C.3     1  UNL1        0.0261
      8 C          -1.7475   55.1988   76.0478 C.3     1  UNL1        0.0523
      9 C          -1.7067   56.1864   77.3225 C.3     1  UNL1        0.1231
     10 C          -0.3589   56.9921   77.5126 C.ar    1  UNL1        0.0133
     11 C          -0.1187   58.1857   76.7157 C.ar    1  UNL1        0.0038
     12 C           0.9785   58.9343   76.8971 C.ar    1  UNL1        0.0603
     13 C           1.9807   58.5452   77.9203 C.ar    1  UNL1        0.2575
     14 O           2.9875   59.2154   78.1118 O.2     1  UNL1       -0.2672
     15 N           1.7132   57.3901   78.6127 N.ar    1  UNL1       -0.3247
     16 H           2.4192   57.1120   79.2826 H       1  UNL1        0.1686
     17 C           0.5865   56.6219   78.4305 C.ar    1  UNL1        0.0347
     18 C           0.5186   55.2616   79.1836 C.3     1  UNL1        0.0518
     19 N          -2.8533   57.1073   77.1947 N.2     1  UNL1       -0.2644
     20 C          -3.5694   57.0345   76.1297 C.2     1  UNL1        0.0938
     21 C          -4.7201   57.9394   75.9419 C.2     1  UNL1        0.0202
     22 C          -5.7015   57.9772   76.8534 C.2     1  UNL1        0.0016
     23 C          -6.8961   58.8282   76.7325 C.ar    1  UNL1        0.0000
     24 C          -6.7992   60.0343   76.0247 C.ar    1  UNL1        0.0000
     25 C          -7.9142   60.8629   75.8693 C.ar    1  UNL1        0.0000
     26 C          -9.1419   60.4902   76.4111 C.ar    1  UNL1        0.0000
     27 C          -9.2568   59.2874   77.1031 C.ar    1  UNL1        0.0000
     28 C          -8.1424   58.4583   77.2575 C.ar    1  UNL1        0.0000
@<TRIPOS>BOND
     1     1     2    1
     2     2     3    2
     3     3     4    1
     4     3     9    1
     5     4     5    1
     6     4    18    1
     7     5     6    2
     8     6     8    1
     9     6     7    1
    10     8     9    1
    11     9    10    1
    12     9    19    1
    13    19    20    2
    14    20    21    1
    15    21    22    2
    16    22    23    1
    17    23    24   ar
    18    23    28   ar
    19    24    25   ar
    20    25    26   ar
    21    26    27   ar
    22    27    28   ar
    23    10    11   ar
    24    10    17   ar
    25    11    12   ar
    26    12    13   ar
    27    13    15   ar
    28    13    14    2
    29    15    17   ar
    30    15    16    1
    31    17    18    1
#	Name:			CHEMBL595115
#	Creating user name:	trannguyen
#	Creation time:		Tue Feb  8 17:54:08 2022


#	Modifying user name:	trannguyen
#	Modification time:	Tue Feb  8 17:54:08 2022

@<TRIPOS>MOLECULE
CHEMBL595115
 29 32 0 0 0
SMALL
GASTEIGER

@<TRIPOS>ATOM
      1 C          -5.5811   73.5683   74.7372 C.3     1  UNL1        0.0301
      2 C          -6.3664   74.6896   74.1406 C.2     1  UNL1       -0.0319
      3 C          -7.6916   74.6846   73.8964 C.2     1  UNL1       -0.0204
      4 C          -8.6371   73.5388   74.2089 C.3     1  UNL1        0.0472
      5 C          -9.2242   73.8688   75.5526 C.2     1  UNL1       -0.0303
      6 C          -9.7367   75.1290   75.6527 C.2     1  UNL1       -0.0453
      7 C         -10.4138   75.6464   76.8830 C.3     1  UNL1        0.0261
      8 C          -9.6494   76.1090   74.4177 C.3     1  UNL1        0.0523
      9 C          -8.5835   75.7374   73.2639 C.3     1  UNL1        0.1231
     10 C          -9.2106   75.0638   71.9872 C.ar    1  UNL1        0.0133
     11 C          -9.7874   75.9059   70.9509 C.ar    1  UNL1        0.0038
     12 C         -10.2336   75.3813   69.8030 C.ar    1  UNL1        0.0603
     13 C         -10.1558   73.9168   69.5837 C.ar    1  UNL1        0.2575
     14 O         -10.5542   73.4092   68.5367 O.2     1  UNL1       -0.2672
     15 N          -9.6299   73.1755   70.6112 N.ar    1  UNL1       -0.3247
     16 H          -9.5993   72.1761   70.4588 H       1  UNL1        0.1686
     17 C          -9.1599   73.7132   71.7876 C.ar    1  UNL1        0.0347
     18 C          -8.6818   72.7221   72.8951 C.3     1  UNL1        0.0518
     19 N          -7.8430   76.9705   72.9045 N.2     1  UNL1       -0.2644
     20 C          -7.5266   77.1120   71.6611 C.2     1  UNL1        0.0937
     21 C          -6.7961   78.2868   71.1619 C.ar    1  UNL1        0.0188
     22 C          -6.0917   78.2314   69.9635 C.ar    1  UNL1        0.0028
     23 C          -5.3907   79.3568   69.5246 C.ar    1  UNL1        0.0146
     24 C          -5.3718   80.5492   70.2683 C.ar    1  UNL1        0.0479
     25 C          -6.1011   80.5791   71.4675 C.ar    1  UNL1        0.0146
     26 C          -6.8127   79.4605   71.9143 C.ar    1  UNL1        0.0028
     27 N          -4.6177   81.6348   69.7973 N.pl3   1  UNL1       -0.3041
     28 C          -4.5622   81.8452   68.3540 C.3     1  UNL1        0.1122
     29 C          -3.3473   81.8076   70.5054 C.3     1  UNL1        0.1122
@<TRIPOS>BOND
     1     1     2    1
     2     2     3    2
     3     3     4    1
     4     3     9    1
     5     4     5    1
     6     4    18    1
     7     5     6    2
     8     6     8    1
     9     6     7    1
    10     8     9    1
    11     9    10    1
    12     9    19    1
    13    19    20    2
    14    20    21    1
    15    21    22   ar
    16    21    26   ar
    17    22    23   ar
    18    23    24   ar
    19    24    27    1
    20    24    25   ar
    21    27    28    1
    22    27    29    1
    23    25    26   ar
    24    10    11   ar
    25    10    17   ar
    26    11    12   ar
    27    12    13   ar
    28    13    15   ar
    29    13    14    2
    30    15    17   ar
    31    15    16    1
    32    17    18    1
#	Name:			CHEMBL596236
#	Creating user name:	trannguyen
#	Creation time:		Tue Feb  8 17:54:08 2022


#	Modifying user name:	trannguyen
#	Modification time:	Tue Feb  8 17:54:08 2022

@<TRIPOS>MOLECULE
CHEMBL596236
 28 31 0 0 0
SMALL
GASTEIGER

@<TRIPOS>ATOM
      1 C          -3.2219   56.1692   80.0692 C.3     1  UNL1        0.0301
      2 C          -2.0565   55.4126   79.5213 C.2     1  UNL1       -0.0319
      3 C          -1.3758   55.5870   78.3698 C.2     1  UNL1       -0.0204
      4 C          -0.1117   54.7882   78.0673 C.3     1  UNL1        0.0472
      5 C          -0.5397   53.6196   77.2433 C.2     1  UNL1       -0.0303
      6 C          -1.2727   53.9673   76.1484 C.2     1  UNL1       -0.0453
      7 C          -1.7936   52.9659   75.1667 C.3     1  UNL1        0.0261
      8 C          -1.5904   55.4953   75.8791 C.3     1  UNL1        0.0523
      9 C          -1.4877   56.5033   77.1649 C.3     1  UNL1        0.1231
     10 C          -0.1676   57.3988   77.2614 C.ar    1  UNL1        0.0133
     11 C          -0.1148   58.7030   76.6134 C.ar    1  UNL1        0.0038
     12 C           0.9417   59.5178   76.7648 C.ar    1  UNL1        0.0603
     13 C           2.0962   59.0958   77.5953 C.ar    1  UNL1        0.2575
     14 O           3.0708   59.8217   77.7546 O.2     1  UNL1       -0.2672
     15 N           2.0027   57.8483   78.1546 N.ar    1  UNL1       -0.3247
     16 H           2.7968   57.5617   78.7127 H       1  UNL1        0.1686
     17 C           0.9150   57.0165   78.0170 C.ar    1  UNL1        0.0347
     18 C           1.0293   55.6102   78.6835 C.3     1  UNL1        0.0518
     19 N          -2.6701   57.3945   77.1993 N.2     1  UNL1       -0.2644
     20 C          -3.6385   57.0894   76.4052 C.2     1  UNL1        0.0937
     21 C          -4.8874   57.8644   76.3433 C.ar    1  UNL1        0.0188
     22 C          -4.9036   59.0281   75.5704 C.ar    1  UNL1        0.0022
     23 C          -6.0575   59.8116   75.5290 C.ar    1  UNL1        0.0103
     24 C          -7.1988   59.4180   76.2393 C.ar    1  UNL1        0.0684
     25 C          -7.1891   58.2238   76.9715 C.ar    1  UNL1        0.0103
     26 C          -6.0308   57.4456   77.0268 C.ar    1  UNL1        0.0022
     27 C          -8.3664   60.2440   76.2295 C.1     1  UNL1        0.1004
     28 N          -9.3169   60.9178   76.2082 N.1     1  UNL1       -0.1908
@<TRIPOS>BOND
     1     1     2    1
     2     2     3    2
     3     3     4    1
     4     3     9    1
     5     4     5    1
     6     4    18    1
     7     5     6    2
     8     6     8    1
     9     6     7    1
    10     8     9    1
    11     9    10    1
    12     9    19    1
    13    19    20    2
    14    20    21    1
    15    21    22   ar
    16    21    26   ar
    17    22    23   ar
    18    23    24   ar
    19    24    27    1
    20    24    25   ar
    21    27    28    3
    22    25    26   ar
    23    10    11   ar
    24    10    17   ar
    25    11    12   ar
    26    12    13   ar
    27    13    15   ar
    28    13    14    2
    29    15    17   ar
    30    15    16    1
    31    17    18    1
#	Name:			CHEMBL596457
#	Creating user name:	trannguyen
#	Creation time:		Tue Feb  8 17:54:08 2022


#	Modifying user name:	trannguyen
#	Modification time:	Tue Feb  8 17:54:08 2022

@<TRIPOS>MOLECULE
CHEMBL596457
 31 34 0 0 0
SMALL
GASTEIGER

@<TRIPOS>ATOM
      1 C          -5.4924   74.7304   74.8232 C.3     1  UNL1        0.0301
      2 C          -6.4684   73.8546   74.1170 C.2     1  UNL1       -0.0319
      3 C          -7.6254   74.1971   73.5162 C.2     1  UNL1       -0.0204
      4 C          -8.6620   73.1071   73.2694 C.3     1  UNL1        0.0472
      5 C          -9.4458   73.0451   74.5635 C.2     1  UNL1       -0.0303
      6 C          -9.7851   74.2453   75.1172 C.2     1  UNL1       -0.0453
      7 C         -10.5542   74.3804   76.3939 C.3     1  UNL1        0.0261
      8 C          -9.3338   75.5918   74.4565 C.3     1  UNL1        0.0523
      9 C          -8.3369   75.5046   73.2134 C.3     1  UNL1        0.1231
     10 C          -9.0013   75.3524   71.7818 C.ar    1  UNL1        0.0133
     11 C          -9.8015   76.4416   71.2399 C.ar    1  UNL1        0.0038
     12 C         -10.3810   76.3496   70.0332 C.ar    1  UNL1        0.0603
     13 C         -10.1550   75.1469   69.2056 C.ar    1  UNL1        0.2575
     14 O         -10.5538   75.0967   68.0317 O.2     1  UNL1       -0.2672
     15 N          -9.4898   74.1173   69.8051 N.ar    1  UNL1       -0.3247
     16 H          -9.4466   73.2498   69.2805 H       1  UNL1        0.1686
     17 C          -8.9542   74.1857   71.0728 C.ar    1  UNL1        0.0347
     18 C          -8.5343   72.8526   71.7457 C.3     1  UNL1        0.0518
     19 N          -7.3719   76.6352   73.0828 N.2     1  UNL1       -0.2643
     20 C          -7.8613   77.8296   73.0720 C.2     1  UNL1        0.0968
     21 C          -7.1072   79.0987   72.9079 C.ar    1  UNL1        0.0555
     22 C          -6.3759   79.5028   74.0442 C.ar    1  UNL1        0.0047
     23 C          -5.6032   80.6629   74.0248 C.ar    1  UNL1        0.0003
     24 C          -5.5516   81.4280   72.8683 C.ar    1  UNL1        0.0032
     25 C          -6.2792   81.0391   71.7402 C.ar    1  UNL1        0.0398
     26 C          -7.0792   79.8867   71.7503 C.ar    1  UNL1        0.1729
     27 O          -7.7310   79.4591   70.6221 O.3     1  UNL1       -0.3592
     28 S          -6.9550   78.7011   69.3966 S.3     1  UNL1        0.0425
     29 O          -6.3205   79.7928   68.6716 O.2     1  UNL1       -0.3360
     30 O          -5.9285   77.8999   70.0841 O.2     1  UNL1       -0.3360
     31 O          -7.9731   77.9618   68.6565 O.3     1  UNL1       -0.2589
@<TRIPOS>BOND
     1     1     2    1
     2     2     3    2
     3     3     4    1
     4     3     9    1
     5     4     5    1
     6     4    18    1
     7     5     6    2
     8     6     8    1
     9     6     7    1
    10     8     9    1
    11     9    10    1
    12     9    19    1
    13    19    20    2
    14    20    21    1
    15    21    22   ar
    16    21    26   ar
    17    22    23   ar
    18    23    24   ar
    19    24    25   ar
    20    25    26   ar
    21    26    27    1
    22    27    28    1
    23    28    29    2
    24    28    30    2
    25    28    31    1
    26    10    11   ar
    27    10    17   ar
    28    11    12   ar
    29    12    13   ar
    30    13    15   ar
    31    13    14    2
    32    15    17   ar
    33    15    16    1
    34    17    18    1
#	Name:			CHEMBL604478
#	Creating user name:	trannguyen
#	Creation time:		Tue Feb  8 17:54:08 2022


#	Modifying user name:	trannguyen
#	Modification time:	Tue Feb  8 17:54:08 2022

@<TRIPOS>MOLECULE
CHEMBL604478
 30 33 0 0 0
SMALL
GASTEIGER

@<TRIPOS>ATOM
      1 C           2.3576   69.8741   66.0554 C.3     1  UNL1        0.0301
      2 C           2.0734   69.0268   64.8608 C.2     1  UNL1       -0.0319
      3 C           2.8888   68.2369   64.1318 C.2     1  UNL1       -0.0204
      4 C           2.4013   67.6553   62.8140 C.3     1  UNL1        0.0472
      5 C           2.7367   68.6963   61.7866 C.2     1  UNL1       -0.0303
      6 C           4.0199   69.1580   61.8531 C.2     1  UNL1       -0.0453
      7 C           4.5619   70.1929   60.9178 C.3     1  UNL1        0.0261
      8 C           5.0062   68.6071   62.9700 C.3     1  UNL1        0.0523
      9 C           4.3392   67.7924   64.1983 C.3     1  UNL1        0.1231
     10 C           4.3549   66.2115   64.0387 C.ar    1  UNL1        0.0133
     11 C           5.5784   65.4615   64.2893 C.ar    1  UNL1        0.0038
     12 C           5.5875   64.1178   64.2644 C.ar    1  UNL1        0.0603
     13 C           4.3403   63.3778   63.9628 C.ar    1  UNL1        0.2575
     14 O           4.3154   62.1439   63.9488 O.2     1  UNL1       -0.2672
     15 N           3.2419   64.1406   63.6707 N.ar    1  UNL1       -0.3247
     16 H           2.4067   63.6287   63.4171 H       1  UNL1        0.1686
     17 C           3.2294   65.5157   63.6979 C.ar    1  UNL1        0.0347
     18 C           1.9511   66.2259   63.1727 C.3     1  UNL1        0.0518
     19 N           4.9910   68.1815   65.4704 N.2     1  UNL1       -0.2644
     20 C           5.2956   69.4346   65.5861 C.2     1  UNL1        0.0938
     21 C           5.9918   69.9720   66.7719 C.ar    1  UNL1        0.0219
     22 C           7.3551   70.2461   66.6933 C.ar    1  UNL1        0.0048
     23 C           8.0102   70.8048   67.7843 C.ar    1  UNL1        0.0398
     24 C           7.3081   71.0800   68.9600 C.ar    1  UNL1        0.1677
     25 O           7.9938   71.6782   69.9784 O.3     1  UNL1       -0.5029
     26 C           5.9429   70.7800   69.0681 C.ar    1  UNL1        0.1722
     27 C           5.2824   70.2368   67.9527 C.ar    1  UNL1        0.0416
     28 H           8.9064   71.8494   69.6971 H       1  UNL1        0.2923
     29 O           5.1366   71.0112   70.1547 O.3     1  UNL1       -0.4684
     30 C           3.7293   71.0213   69.9223 C.3     1  UNL1        0.2526
@<TRIPOS>BOND
     1     1     2    1
     2     2     3    2
     3     3     4    1
     4     3     9    1
     5     4     5    1
     6     4    18    1
     7     5     6    2
     8     6     8    1
     9     6     7    1
    10     8     9    1
    11     9    10    1
    12     9    19    1
    13    19    20    2
    14    20    21    1
    15    21    22   ar
    16    21    27   ar
    17    22    23   ar
    18    23    24   ar
    19    24    25    1
    20    24    26   ar
    21    25    28    1
    22    26    29    1
    23    26    27   ar
    24    29    30    1
    25    10    11   ar
    26    10    17   ar
    27    11    12   ar
    28    12    13   ar
    29    13    15   ar
    30    13    14    2
    31    15    17   ar
    32    15    16    1
    33    17    18    1
#	Name:			CHEMBL605303
#	Creating user name:	trannguyen
#	Creation time:		Tue Feb  8 17:54:08 2022


#	Modifying user name:	trannguyen
#	Modification time:	Tue Feb  8 17:54:08 2022

@<TRIPOS>MOLECULE
CHEMBL605303
 31 34 0 0 0
SMALL
GASTEIGER

@<TRIPOS>ATOM
      1 C           2.1883   69.4139   65.7175 C.3     1  UNL1        0.0301
      2 C           2.2725   69.0449   64.2774 C.2     1  UNL1       -0.0319
      3 C           3.2979   68.5066   63.5889 C.2     1  UNL1       -0.0204
      4 C           3.0828   67.9962   62.1679 C.3     1  UNL1        0.0472
      5 C           3.5453   69.1093   61.2793 C.2     1  UNL1       -0.0303
      6 C           4.8097   69.5394   61.5565 C.2     1  UNL1       -0.0453
      7 C           5.4822   70.6580   60.8274 C.3     1  UNL1        0.0261
      8 C           5.6241   68.8289   62.7086 C.3     1  UNL1        0.0523
      9 C           4.7371   68.1350   63.8748 C.3     1  UNL1        0.1231
     10 C           4.7270   66.5530   63.8248 C.ar    1  UNL1        0.0133
     11 C           5.7808   65.8120   64.5001 C.ar    1  UNL1        0.0038
     12 C           5.7383   64.4758   64.5981 C.ar    1  UNL1        0.0603
     13 C           4.6072   63.7332   63.9979 C.ar    1  UNL1        0.2575
     14 O           4.5270   62.5026   64.1020 O.2     1  UNL1       -0.2672
     15 N           3.6814   64.4756   63.3181 N.ar    1  UNL1       -0.3247
     16 H           2.9190   63.9570   62.9024 H       1  UNL1        0.1686
     17 C           3.7145   65.8515   63.2271 C.ar    1  UNL1        0.0347
     18 C           2.6021   66.5414   62.3705 C.3     1  UNL1        0.0518
     19 N           5.2208   68.5308   65.2082 N.2     1  UNL1       -0.2644
     20 C           5.5602   69.7474   65.4418 C.2     1  UNL1        0.0938
     21 C           6.0770   70.1355   66.7729 C.ar    1  UNL1        0.0219
     22 C           7.4498   70.3331   66.9470 C.ar    1  UNL1        0.0048
     23 C           7.9525   70.6568   68.2050 C.ar    1  UNL1        0.0398
     24 C           7.0817   70.7976   69.2856 C.ar    1  UNL1        0.1677
     25 O           7.6212   71.0483   70.5179 O.3     1  UNL1       -0.5029
     26 C           5.6945   70.6632   69.1113 C.ar    1  UNL1        0.1720
     27 C           5.1982   70.3026   67.8484 C.ar    1  UNL1        0.0416
     28 H           8.5661   71.2487   70.4233 H       1  UNL1        0.2923
     29 O           4.7296   70.8569   70.0724 O.3     1  UNL1       -0.4724
     30 C           3.3862   70.9415   69.5868 C.3     1  UNL1        0.2057
     31 C           2.8651   69.5549   69.2667 C.3     1  UNL1        0.0512
@<TRIPOS>BOND
     1     1     2    1
     2     2     3    2
     3     3     4    1
     4     3     9    1
     5     4     5    1
     6     4    18    1
     7     5     6    2
     8     6     8    1
     9     6     7    1
    10     8     9    1
    11     9    10    1
    12     9    19    1
    13    19    20    2
    14    20    21    1
    15    21    22   ar
    16    21    27   ar
    17    22    23   ar
    18    23    24   ar
    19    24    25    1
    20    24    26   ar
    21    25    28    1
    22    26    29    1
    23    26    27   ar
    24    29    30    1
    25    30    31    1
    26    10    11   ar
    27    10    17   ar
    28    11    12   ar
    29    12    13   ar
    30    13    15   ar
    31    13    14    2
    32    15    17   ar
    33    15    16    1
    34    17    18    1
#	Name:			CHEMBL606348
#	Creating user name:	trannguyen
#	Creation time:		Tue Feb  8 17:54:08 2022


#	Modifying user name:	trannguyen
#	Modification time:	Tue Feb  8 17:54:08 2022

@<TRIPOS>MOLECULE
CHEMBL606348
 30 33 0 0 0
SMALL
GASTEIGER

@<TRIPOS>ATOM
      1 C          -5.2484   59.4991   74.7896 C.3     1  UNL1        0.0301
      2 C          -3.8102   59.1878   75.0413 C.2     1  UNL1       -0.0319
      3 C          -3.2503   58.2308   75.8092 C.2     1  UNL1       -0.0204
      4 C          -1.7507   58.2321   76.0867 C.3     1  UNL1        0.0472
      5 C          -1.5953   59.1032   77.2974 C.2     1  UNL1       -0.0303
      6 C          -2.4301   58.7671   78.3240 C.2     1  UNL1       -0.0453
      7 C          -2.5133   59.5362   79.6037 C.3     1  UNL1        0.0261
      8 C          -3.4103   57.5304   78.1595 C.3     1  UNL1        0.0523
      9 C          -3.7507   57.0709   76.6454 C.3     1  UNL1        0.1231
     10 C          -2.9711   55.7890   76.1437 C.ar    1  UNL1        0.0133
     11 C          -3.4755   54.4587   76.4604 C.ar    1  UNL1        0.0038
     12 C          -2.9025   53.3586   75.9632 C.ar    1  UNL1        0.0603
     13 C          -1.7102   53.4743   75.0844 C.ar    1  UNL1        0.2575
     14 O          -1.1701   52.4899   74.6188 O.2     1  UNL1       -0.2672
     15 N          -1.2637   54.7574   74.8474 N.ar    1  UNL1       -0.3247
     16 H          -0.4385   54.8208   74.2641 H       1  UNL1        0.1686
     17 C          -1.8539   55.8869   75.3477 C.ar    1  UNL1        0.0347
     18 C          -1.1546   57.2475   75.0654 C.3     1  UNL1        0.0518
     19 N          -5.2095   56.8686   76.5469 N.2     1  UNL1       -0.2644
     20 C          -5.9078   57.2112   77.5760 C.2     1  UNL1        0.0939
     21 C          -7.3708   57.0579   77.6031 C.ar    1  UNL1        0.0248
     22 C          -8.1740   58.1435   77.2480 C.ar    1  UNL1        0.0386
     23 C          -9.5624   58.0102   77.2703 C.ar    1  UNL1        0.1418
     24 C         -10.1274   56.7922   77.6562 C.ar    1  UNL1        0.0737
     25 C          -9.3212   55.7160   78.0321 C.ar    1  UNL1        0.1418
     26 C          -7.9378   55.8420   77.9900 C.ar    1  UNL1        0.0386
     27 O         -10.2635   59.1265   76.9003 O.3     1  UNL1       -0.4713
     28 C          -9.4827   60.2797   76.5998 C.3     1  UNL1        0.2525
     29 O          -9.9958   54.5790   78.3827 O.3     1  UNL1       -0.4713
     30 C          -9.1719   53.4769   78.7482 C.3     1  UNL1        0.2525
@<TRIPOS>BOND
     1     1     2    1
     2     2     3    2
     3     3     4    1
     4     3     9    1
     5     4     5    1
     6     4    18    1
     7     5     6    2
     8     6     8    1
     9     6     7    1
    10     8     9    1
    11     9    10    1
    12     9    19    1
    13    19    20    2
    14    20    21    1
    15    21    22   ar
    16    21    26   ar
    17    22    23   ar
    18    23    27    1
    19    23    24   ar
    20    27    28    1
    21    24    25   ar
    22    25    29    1
    23    25    26   ar
    24    29    30    1
    25    10    11   ar
    26    10    17   ar
    27    11    12   ar
    28    12    13   ar
    29    13    15   ar
    30    13    14    2
    31    15    17   ar
    32    15    16    1
    33    17    18    1
#	Name:			CHEMBL606372
#	Creating user name:	trannguyen
#	Creation time:		Tue Feb  8 17:54:08 2022


#	Modifying user name:	trannguyen
#	Modification time:	Tue Feb  8 17:54:08 2022

@<TRIPOS>MOLECULE
CHEMBL606372
 31 34 0 0 0
SMALL
GASTEIGER

@<TRIPOS>ATOM
      1 C          -5.1941   81.0546   77.2168 C.3     1  UNL1        0.0301
      2 C          -5.7498   80.5732   75.9151 C.2     1  UNL1       -0.0319
      3 C          -6.8005   79.7410   75.7756 C.2     1  UNL1       -0.0204
      4 C          -7.6423   79.1900   76.9148 C.3     1  UNL1        0.0472
      5 C          -8.7741   80.1680   77.0717 C.2     1  UNL1       -0.0303
      6 C          -9.4007   80.5041   75.9074 C.2     1  UNL1       -0.0453
      7 C         -10.5540   81.4534   75.8308 C.3     1  UNL1        0.0261
      8 C          -8.9075   79.8960   74.5397 C.3     1  UNL1        0.0523
      9 C          -7.4629   79.1932   74.5273 C.3     1  UNL1        0.1231
     10 C          -7.4561   77.6215   74.6719 C.ar    1  UNL1        0.0133
     11 C          -7.6890   76.8038   73.4947 C.ar    1  UNL1        0.0038
     12 C          -7.5507   75.4660   73.5459 C.ar    1  UNL1        0.0603
     13 C          -7.1823   74.8052   74.8218 C.ar    1  UNL1        0.2575
     14 O          -7.0326   73.5965   74.8863 O.2     1  UNL1       -0.2672
     15 N          -7.0285   75.6321   75.9030 N.ar    1  UNL1       -0.3247
     16 H          -6.7910   75.1804   76.7736 H       1  UNL1        0.1686
     17 C          -7.1474   77.0127   75.8465 C.ar    1  UNL1        0.0347
     18 C          -7.0332   77.7948   77.1912 C.3     1  UNL1        0.0518
     19 N          -6.7812   79.6198   73.2876 N.2     1  UNL1       -0.2644
     20 C          -7.5241   80.0821   72.3457 C.2     1  UNL1        0.0938
     21 C          -6.9327   80.5083   71.0715 C.2     1  UNL1        0.0202
     22 C          -7.3915   79.9749   69.9328 C.2     1  UNL1        0.0016
     23 C          -6.8043   80.2742   68.6242 C.ar    1  UNL1        0.0001
     24 C          -5.4470   80.0727   68.3599 C.ar    1  UNL1        0.0013
     25 C          -4.9274   80.3252   67.0888 C.ar    1  UNL1        0.0145
     26 C          -5.7417   80.7758   66.0411 C.ar    1  UNL1        0.0479
     27 C          -7.1036   80.9600   66.3140 C.ar    1  UNL1        0.0145
     28 C          -7.6323   80.7037   67.5855 C.ar    1  UNL1        0.0013
     29 N          -5.1609   81.0073   64.7843 N.pl3   1  UNL1       -0.3041
     30 C          -6.0347   80.9340   63.6178 C.3     1  UNL1        0.1122
     31 C          -3.8613   80.3467   64.6398 C.3     1  UNL1        0.1122
@<TRIPOS>BOND
     1     1     2    1
     2     2     3    2
     3     3     4    1
     4     3     9    1
     5     4     5    1
     6     4    18    1
     7     5     6    2
     8     6     8    1
     9     6     7    1
    10     8     9    1
    11     9    10    1
    12     9    19    1
    13    19    20    2
    14    20    21    1
    15    21    22    2
    16    22    23    1
    17    23    24   ar
    18    23    28   ar
    19    24    25   ar
    20    25    26   ar
    21    26    29    1
    22    26    27   ar
    23    29    30    1
    24    29    31    1
    25    27    28   ar
    26    10    11   ar
    27    10    17   ar
    28    11    12   ar
    29    12    13   ar
    30    13    15   ar
    31    13    14    2
    32    15    17   ar
    33    15    16    1
    34    17    18    1
#	Name:			CHEMBL606538
#	Creating user name:	trannguyen
#	Creation time:		Tue Feb  8 17:54:08 2022


#	Modifying user name:	trannguyen
#	Modification time:	Tue Feb  8 17:54:08 2022

@<TRIPOS>MOLECULE
CHEMBL606538
 30 33 0 0 0
SMALL
GASTEIGER

@<TRIPOS>ATOM
      1 C          -0.8875   59.7736   78.1053 C.3     1  UNL1        0.1231
      2 C          -0.2294   60.0154   79.5042 C.3     1  UNL1        0.0523
      3 C           1.2765   60.2750   79.4234 C.2     1  UNL1       -0.0453
      4 C           2.0421   60.1514   80.7047 C.3     1  UNL1        0.0261
      5 C           1.8698   60.5717   78.2469 C.2     1  UNL1       -0.0303
      6 C           1.1027   60.7158   76.9394 C.3     1  UNL1        0.0472
      7 C           1.2392   59.4585   76.0511 C.3     1  UNL1        0.0518
      8 C           0.5371   58.2633   76.6385 C.ar    1  UNL1        0.0347
      9 N           0.9445   57.0127   76.2315 N.ar    1  UNL1       -0.3247
     10 H           1.6682   56.9130   75.5354 H       1  UNL1        0.1686
     11 C           0.4747   55.8355   76.7581 C.ar    1  UNL1        0.2575
     12 O           0.8842   54.7422   76.4038 O.2     1  UNL1       -0.2672
     13 C          -0.5653   55.9659   77.8152 C.ar    1  UNL1        0.0603
     14 C          -0.9808   57.1797   78.1762 C.ar    1  UNL1        0.0038
     15 C          -0.4261   58.3919   77.5882 C.ar    1  UNL1        0.0133
     16 C          -0.3713   60.9391   77.2371 C.2     1  UNL1       -0.0204
     17 C          -1.0649   62.0438   76.8874 C.2     1  UNL1       -0.0319
     18 C          -0.5252   63.2456   76.1787 C.3     1  UNL1        0.0301
     19 C          -3.0303   59.4806   77.1996 C.2     1  UNL1        0.0937
     20 N          -2.3622   59.7790   78.2644 N.2     1  UNL1       -0.2644
     21 C          -7.2726   59.0729   77.2691 C.ar    1  UNL1        0.1391
     22 C          -6.5345   58.9939   78.4530 C.ar    1  UNL1        0.0370
     23 C          -5.1434   59.1124   78.4274 C.ar    1  UNL1        0.0046
     24 C          -4.4941   59.3277   77.2103 C.ar    1  UNL1        0.0189
     25 C          -5.2273   59.4444   76.0296 C.ar    1  UNL1        0.0046
     26 C          -6.6174   59.3252   76.0617 C.ar    1  UNL1        0.0370
     27 O          -8.6261   58.9294   77.4100 O.3     1  UNL1       -0.4707
     28 C          -9.0468   57.6974   77.9946 C.3     1  UNL1        0.2318
     29 C         -10.5062   56.0248   76.8440 C.2     1  UNL1       -0.0011
     30 C          -9.3805   56.7515   76.8819 C.2     1  UNL1        0.0207
@<TRIPOS>BOND
     1    29    30    2
     2    30    28    1
     3    28    27    1
     4    27    21    1
     5    21    22   ar
     6    21    26   ar
     7    22    23   ar
     8    23    24   ar
     9    24    19    1
    10    24    25   ar
    11    19    20    2
    12     1    20    1
    13     1     2    1
    14     1    15    1
    15     1    16    1
    16     2     3    1
    17     3     4    1
    18     3     5    2
    19     5     6    1
    20     6     7    1
    21     6    16    1
    22     7     8    1
    23     8     9   ar
    24     8    15   ar
    25     9    10    1
    26     9    11   ar
    27    11    12    2
    28    11    13   ar
    29    13    14   ar
    30    14    15   ar
    31    16    17    2
    32    17    18    1
    33    25    26   ar
#	Name:			CHEMBL659
#	Creating user name:	trannguyen
#	Creation time:		Tue Feb  8 17:54:08 2022


#	Modifying user name:	trannguyen
#	Modification time:	Tue Feb  8 17:54:08 2022

@<TRIPOS>MOLECULE
CHEMBL659
 22 25 0 0 0
SMALL
GASTEIGER

@<TRIPOS>ATOM
      1 C           3.8465   61.0741   79.5148 C.ar    1  UNL1        0.1721
      2 C           3.4648   61.8797   80.5909 C.ar    1  UNL1        0.0397
      3 C           2.1560   62.3783   80.7031 C.ar    1  UNL1        0.0001
      4 C           1.1793   62.0851   79.7382 C.ar    1  UNL1       -0.0066
      5 C           1.5713   61.2875   78.6679 C.ar    1  UNL1        0.0187
      6 C           2.8811   60.8030   78.5579 C.ar    1  UNL1        0.1682
      7 O           3.0615   60.0335   77.4316 O.3     1  UNL1       -0.4757
      8 C           1.9310   60.3864   76.5934 C.3     1  UNL1        0.1761
      9 C           1.6156   59.2242   75.6501 C.3     1  UNL1        0.0779
     10 C           1.0891   57.9989   76.3972 C.3     1  UNL1        0.1358
     11 O           2.1547   57.3033   77.0293 O.3     1  UNL1       -0.3799
     12 C           0.0884   58.3403   77.4535 C.2     1  UNL1       -0.0015
     13 C          -0.0835   59.5768   77.9467 C.2     1  UNL1       -0.0213
     14 C           0.7454   60.7816   77.5257 C.3     1  UNL1        0.0780
     15 C          -0.1082   61.8645   76.8447 C.3     1  UNL1        0.0290
     16 C          -1.2327   62.4802   77.6840 C.3     1  UNL1        0.0732
     17 N          -0.7616   63.3400   78.7814 N.3     1  UNL1       -0.2677
     18 C          -1.8689   64.1884   79.2404 C.3     1  UNL1        0.0899
     19 C          -0.2395   62.5648   79.9201 C.3     1  UNL1        0.0990
     20 H           2.6082   57.9496   77.6044 H       1  UNL1        0.2108
     21 C           6.0000   61.2790   80.5098 C.3     1  UNL1        0.2526
     22 O           5.1472   60.6647   79.5540 O.3     1  UNL1       -0.4684
@<TRIPOS>BOND
     1    21    22    1
     2    22     1    1
     3     1     2   ar
     4     1     6   ar
     5     2     3   ar
     6     3     4   ar
     7     4     5   ar
     8     4    19    1
     9     5     6   ar
    10     5    14    1
    11     6     7    1
    12     7     8    1
    13     8     9    1
    14     8    14    1
    15     9    10    1
    16    10    11    1
    17    10    12    1
    18    11    20    1
    19    12    13    2
    20    14    13    1
    21    14    15    1
    22    15    16    1
    23    16    17    1
    24    17    18    1
    25    17    19    1
#	Name:			CHEMBL86546
#	Creating user name:	trannguyen
#	Creation time:		Tue Feb  8 17:54:08 2022


#	Modifying user name:	trannguyen
#	Modification time:	Tue Feb  8 17:54:08 2022

@<TRIPOS>MOLECULE
CHEMBL86546
 16 16 0 0 0
SMALL
GASTEIGER

@<TRIPOS>ATOM
      1 C          -7.5135   74.2231   73.9364 C.ar    1  UNL1        0.0431
      2 C          -7.4529   75.6219   73.9553 C.ar    1  UNL1        0.0031
      3 C          -7.5430   76.3105   75.1663 C.ar    1  UNL1        0.0000
      4 C          -7.6682   75.6120   76.3675 C.ar    1  UNL1        0.0039
      5 C          -7.6961   74.2104   76.3760 C.ar    1  UNL1        0.0715
      6 C          -7.6152   73.5258   75.1515 C.ar    1  UNL1        0.0070
      7 C          -7.8121   73.4404   77.6703 C.3     1  UNL1        0.4186
      8 F          -7.4545   74.1655   78.7666 F       1  UNL1       -0.1659
      9 F          -9.0824   73.0115   77.9052 F       1  UNL1       -0.1659
     10 F          -7.0288   72.3278   77.6866 F       1  UNL1       -0.1659
     11 O          -6.3254   73.1258   72.2556 O.2     1  UNL1       -0.2825
     12 C          -7.4480   73.4320   72.6773 C.2     1  UNL1        0.2666
     13 C          -8.7380   73.0144   71.9817 C.3     1  UNL1        0.4554
     14 F          -9.8465   73.7036   72.3751 F       1  UNL1       -0.1631
     15 F          -8.6625   73.1708   70.6301 F       1  UNL1       -0.1631
     16 F          -9.0304   71.7025   72.1997 F       1  UNL1       -0.1631
@<TRIPOS>BOND
     1    11    12    2
     2    12     1    1
     3    12    13    1
     4     1     2   ar
     5     1     6   ar
     6     2     3   ar
     7     3     4   ar
     8     4     5   ar
     9     5     7    1
    10     5     6   ar
    11     7     8    1
    12     7     9    1
    13     7    10    1
    14    13    14    1
    15    13    15    1
    16    13    16    1
#	Name:			CHEMBL86868
#	Creating user name:	trannguyen
#	Creation time:		Tue Feb  8 17:54:08 2022


#	Modifying user name:	trannguyen
#	Modification time:	Tue Feb  8 17:54:08 2022

@<TRIPOS>MOLECULE
CHEMBL86868
 13 13 0 0 0
SMALL
GASTEIGER

@<TRIPOS>ATOM
      1 C           6.5253   70.5212   67.2858 C.3     1  UNL1        0.0310
      2 C           5.3351   69.9807   66.5486 C.ar    1  UNL1       -0.0218
      3 C           4.1012   69.8350   67.1905 C.ar    1  UNL1       -0.0043
      4 C           2.9911   69.3640   66.4892 C.ar    1  UNL1       -0.0002
      5 C           3.0997   69.0304   65.1381 C.ar    1  UNL1        0.0031
      6 C           4.3324   69.1458   64.4858 C.ar    1  UNL1        0.0428
      7 C           5.4407   69.6396   65.1930 C.ar    1  UNL1       -0.0011
      8 C           4.5159   68.7900   63.0523 C.2     1  UNL1        0.2666
      9 O           5.4541   69.3194   62.4432 O.2     1  UNL1       -0.2825
     10 C           3.5648   67.7947   62.4014 C.3     1  UNL1        0.4554
     11 F           2.3024   68.2643   62.1928 F       1  UNL1       -0.1631
     12 F           4.0152   67.3815   61.1831 F       1  UNL1       -0.1631
     13 F           3.4123   66.6685   63.1532 F       1  UNL1       -0.1631
@<TRIPOS>BOND
     1     1     2    1
     2     2     3   ar
     3     2     7   ar
     4     3     4   ar
     5     4     5   ar
     6     5     6   ar
     7     6     8    1
     8     6     7   ar
     9     8     9    2
    10     8    10    1
    11    10    11    1
    12    10    12    1
    13    10    13    1
#	Name:			CHEMBL87098
#	Creating user name:	trannguyen
#	Creation time:		Tue Feb  8 17:54:08 2022


#	Modifying user name:	trannguyen
#	Modification time:	Tue Feb  8 17:54:08 2022

@<TRIPOS>MOLECULE
CHEMBL87098
 15 15 0 0 0
SMALL
GASTEIGER

@<TRIPOS>ATOM
      1 C           4.0651   68.9332   64.5698 C.ar    1  UNL1       -0.0224
      2 C           2.8073   68.8768   65.1837 C.ar    1  UNL1       -0.0043
      3 C           2.6403   69.3019   66.5033 C.ar    1  UNL1       -0.0002
      4 C           3.7282   69.7850   67.2344 C.ar    1  UNL1        0.0031
      5 C           4.9958   69.8271   66.6505 C.ar    1  UNL1        0.0428
      6 C           5.1518   69.4137   65.3168 C.ar    1  UNL1       -0.0012
      7 C           2.9569   68.7004   62.3154 C.3     1  UNL1        0.0047
      8 C           4.2354   68.4811   63.1296 C.3     1  UNL1        0.0224
      9 C           5.4272   69.1775   62.4674 C.3     1  UNL1        0.0047
     10 C           6.2070   70.3266   67.3587 C.2     1  UNL1        0.2666
     11 O           7.3109   70.0280   66.8858 O.2     1  UNL1       -0.2825
     12 C           6.0551   71.1343   68.6380 C.3     1  UNL1        0.4554
     13 F           5.4017   70.4974   69.6495 F       1  UNL1       -0.1631
     14 F           7.2652   71.4910   69.1561 F       1  UNL1       -0.1631
     15 F           5.3753   72.2967   68.4284 F       1  UNL1       -0.1631
@<TRIPOS>BOND
     1     7     8    1
     2     8     9    1
     3     8     1    1
     4     1     2   ar
     5     1     6   ar
     6     2     3   ar
     7     3     4   ar
     8     4     5   ar
     9     5    10    1
    10     5     6   ar
    11    10    11    2
    12    10    12    1
    13    12    13    1
    14    12    14    1
    15    12    15    1
#	Name:			CHEMBL89354
#	Creating user name:	trannguyen
#	Creation time:		Tue Feb  8 17:54:08 2022


#	Modifying user name:	trannguyen
#	Modification time:	Tue Feb  8 17:54:08 2022

@<TRIPOS>MOLECULE
CHEMBL89354
 16 16 0 0 0
SMALL
GASTEIGER

@<TRIPOS>ATOM
      1 C           4.0675   68.9203   64.5540 C.ar    1  UNL1       -0.0227
      2 C           2.8148   68.9107   65.1930 C.ar    1  UNL1       -0.0043
      3 C           2.6688   69.3268   66.5204 C.ar    1  UNL1       -0.0002
      4 C           3.7715   69.7735   67.2454 C.ar    1  UNL1        0.0031
      5 C           5.0225   69.8311   66.6324 C.ar    1  UNL1        0.0428
      6 C           5.1629   69.3922   65.3017 C.ar    1  UNL1       -0.0012
      7 C           2.9597   68.6627   62.2362 C.3     1  UNL1        0.0044
      8 C           4.2141   68.4156   63.1059 C.3     1  UNL1        0.0189
      9 C           4.4818   66.8956   63.0963 C.3     1  UNL1        0.0044
     10 C           5.3927   69.1369   62.4165 C.3     1  UNL1        0.0044
     11 C           6.2533   70.3047   67.3307 C.2     1  UNL1        0.2666
     12 O           7.3440   69.9721   66.8615 O.2     1  UNL1       -0.2825
     13 C           6.1228   71.1907   68.5600 C.3     1  UNL1        0.4554
     14 F           5.3616   72.3064   68.3923 F       1  UNL1       -0.1631
     15 F           5.5726   70.5188   69.6136 F       1  UNL1       -0.1631
     16 F           7.3358   71.6393   68.9925 F       1  UNL1       -0.1631
@<TRIPOS>BOND
     1     7     8    1
     2     8     9    1
     3     8    10    1
     4     8     1    1
     5     1     2   ar
     6     1     6   ar
     7     2     3   ar
     8     3     4   ar
     9     4     5   ar
    10     5    11    1
    11     5     6   ar
    12    11    12    2
    13    11    13    1
    14    13    14    1
    15    13    15    1
    16    13    16    1
#	Name:			CHEMBL94
#	Creating user name:	trannguyen
#	Creation time:		Tue Feb  8 17:54:08 2022


#	Modifying user name:	trannguyen
#	Modification time:	Tue Feb  8 17:54:08 2022

@<TRIPOS>MOLECULE
CHEMBL94
 21 23 0 0 0
SMALL
GASTEIGER

@<TRIPOS>ATOM
      1 C           1.7188   59.2752   75.6126 C.ar    1  UNL1        0.1498
      2 C           2.0644   60.5843   75.9735 C.ar    1  UNL1        0.0389
      3 C           1.2093   61.3413   76.7865 C.ar    1  UNL1        0.0174
      4 C           0.0157   60.7832   77.2256 C.ar    1  UNL1        0.0450
      5 C          -0.3027   59.4773   76.8556 C.ar    1  UNL1       -0.0035
      6 C           0.5196   58.7134   76.0371 C.ar    1  UNL1        0.0347
      7 C          -1.6220   59.0951   77.4389 C.3     1  UNL1        0.0525
      8 C          -1.4982   57.8775   78.3615 C.3     1  UNL1        0.0075
      9 C          -2.7162   58.9137   76.3899 C.3     1  UNL1        0.0244
     10 C          -3.9348   59.4875   77.0826 C.3     1  UNL1        0.0740
     11 N          -3.4190   60.6891   77.7392 N.3     1  UNL1       -0.2567
     12 C          -4.2951   61.1307   78.8159 C.3     1  UNL1        0.0909
     13 C          -2.0471   60.3935   78.2128 C.3     1  UNL1        0.1380
     14 N          -0.9490   61.3815   78.0576 N.pl3   1  UNL1       -0.2945
     15 C          -1.3084   62.7494   77.7148 C.3     1  UNL1        0.1134
     16 O           2.5846   58.6201   74.7105 O.3     1  UNL1       -0.4103
     17 C           2.0156   59.7545   71.3270 C.3     1  UNL1        0.1140
     18 N           1.8868   59.3183   72.6900 N.am    1  UNL1       -0.2686
     19 C           2.9726   59.2240   73.5184 C.2     1  UNL1        0.4062
     20 O           4.0992   59.5942   73.2247 O.2     1  UNL1       -0.2260
     21 H           1.0291   58.8977   73.0182 H       1  UNL1        0.1528
@<TRIPOS>BOND
     1    17    18    1
     2    18    19   am
     3    18    21    1
     4    19    20    2
     5    19    16    1
     6    16     1    1
     7     1     2   ar
     8     1     6   ar
     9     2     3   ar
    10     3     4   ar
    11     4     5   ar
    12     4    14    1
    13     5     6   ar
    14     5     7    1
    15     7     8    1
    16     7     9    1
    17     7    13    1
    18     9    10    1
    19    10    11    1
    20    11    12    1
    21    11    13    1
    22    13    14    1
    23    14    15    1
#	Name:			CHEMBL95
#	Creating user name:	trannguyen
#	Creation time:		Tue Feb  8 17:54:08 2022


#	Modifying user name:	trannguyen
#	Modification time:	Tue Feb  8 17:54:08 2022

@<TRIPOS>MOLECULE
CHEMBL95
 17 19 0 0 0
SMALL
GASTEIGER

@<TRIPOS>ATOM
      1 N           1.8166   69.0541   66.5036 N.pl3   1  UNL1       -0.3572
      2 C           3.1684   69.2493   66.1200 C.ar    1  UNL1        0.0400
      3 C           3.5418   69.0616   64.7737 C.ar    1  UNL1        0.0043
      4 C           4.8689   69.3237   64.4237 C.ar    1  UNL1        0.0561
      5 N           5.7797   69.8168   65.2934 N.ar    1  UNL1       -0.2499
      6 C           5.4027   70.0762   66.5506 C.ar    1  UNL1        0.0820
      7 C           6.3499   70.6168   67.4104 C.ar    1  UNL1        0.0191
      8 C           6.0534   70.9307   68.7371 C.ar    1  UNL1        0.0015
      9 C           4.7742   70.7071   69.2210 C.ar    1  UNL1        0.0001
     10 C           3.8052   70.1673   68.3747 C.ar    1  UNL1        0.0027
     11 C           4.0985   69.8310   67.0276 C.ar    1  UNL1        0.0303
     12 C           5.3742   69.1327   63.0168 C.3     1  UNL1        0.0455
     13 C           4.5010   68.2027   62.1839 C.3     1  UNL1        0.0066
     14 C           3.0452   68.6242   62.3053 C.3     1  UNL1        0.0052
     15 C           2.5728   68.5092   63.7539 C.3     1  UNL1        0.0288
     16 H           1.3275   68.3678   65.9393 H       1  UNL1        0.1423
     17 H           1.7046   68.8485   67.4898 H       1  UNL1        0.1423
@<TRIPOS>BOND
     1     1     2    1
     2     1    16    1
     3     1    17    1
     4     2     3   ar
     5     2    11   ar
     6     3     4   ar
     7     3    15    1
     8     4     5   ar
     9     4    12    1
    10     5     6   ar
    11     6     7   ar
    12     6    11   ar
    13     7     8   ar
    14     8     9   ar
    15     9    10   ar
    16    10    11   ar
    17    12    13    1
    18    13    14    1
    19    14    15    1
#	Name:			CHEMBL1025
#	Creating user name:	trannguyen
#	Creation time:		Tue Feb  8 17:54:08 2022


#	Modifying user name:	trannguyen
#	Modification time:	Tue Feb  8 17:54:08 2022

@<TRIPOS>MOLECULE
CHEMBL1025
 11 10 0 0 0
SMALL
GASTEIGER

@<TRIPOS>ATOM
      1 P          -7.5460   73.6573   72.9591 P.3     1  UNL1        0.5166
      2 O          -7.3179   75.1341   72.6208 O.2     1  UNL1       -0.2226
      3 F          -6.2340   72.8979   72.4465 F       1  UNL1       -0.1326
      4 O          -6.8216   73.9015   74.5111 O.3     1  UNL1       -0.2726
      5 C          -7.4978   73.2707   76.7089 C.3     1  UNL1        0.0327
      6 C          -7.6811   74.2843   75.5827 C.3     1  UNL1        0.1265
      7 C          -7.3590   75.6856   76.0890 C.3     1  UNL1        0.0327
      8 O          -8.2703   73.4132   71.4071 O.3     1  UNL1       -0.2726
      9 C          -9.6740   73.1792   71.4149 C.3     1  UNL1        0.1265
     10 C         -10.0811   72.3274   70.2182 C.3     1  UNL1        0.0327
     11 C         -10.0153   72.4588   72.7140 C.3     1  UNL1        0.0327
@<TRIPOS>BOND
     1     5     6    1
     2     6     7    1
     3     6     4    1
     4     4     1    1
     5     1     2    2
     6     1     3    1
     7     1     8    1
     8     8     9    1
     9     9    10    1
    10     9    11    1
#	Name:			CHEMBL107931
#	Creating user name:	trannguyen
#	Creation time:		Tue Feb  8 17:54:08 2022


#	Modifying user name:	trannguyen
#	Modification time:	Tue Feb  8 17:54:08 2022

@<TRIPOS>MOLECULE
CHEMBL107931
 20 21 0 0 0
SMALL
GASTEIGER

@<TRIPOS>ATOM
      1 C           3.5927   68.9763   64.7823 C.ar    1  UNL1        0.1021
      2 C           4.8648   69.3012   64.3083 C.ar    1  UNL1        0.0667
      3 C           5.3330   69.0271   62.9082 C.3     1  UNL1        0.0524
      4 N           5.8060   69.8822   65.0976 N.ar    1  UNL1       -0.2493
      5 C           5.5226   70.1523   66.3773 C.ar    1  UNL1        0.0842
      6 C           6.5088   70.7704   67.1366 C.ar    1  UNL1        0.0193
      7 C           6.3171   71.0927   68.4802 C.ar    1  UNL1        0.0039
      8 C           5.1107   70.7803   69.0849 C.ar    1  UNL1        0.0298
      9 C           4.1145   70.1611   68.3347 C.ar    1  UNL1        0.1427
     10 F           2.9727   69.8437   68.9684 F       1  UNL1       -0.2041
     11 C           4.2840   69.8398   66.9668 C.ar    1  UNL1        0.0582
     12 C           3.3029   69.2087   66.1486 C.ar    1  UNL1        0.0526
     13 N           1.9803   69.0443   66.6418 N.pl3   1  UNL1       -0.3567
     14 H           1.9295   68.9437   67.6548 H       1  UNL1        0.1424
     15 H           1.4615   68.3043   66.1578 H       1  UNL1        0.1424
     16 C           2.5624   68.3248   63.9351 C.2     1  UNL1        0.3436
     17 O           2.0331   68.8779   62.9852 O.2     1  UNL1       -0.2448
     18 O           2.3505   67.0426   64.3219 O.3     1  UNL1       -0.4454
     19 C           3.1836   64.8048   64.7149 C.3     1  UNL1        0.0513
     20 C           3.3738   66.1047   63.9579 C.3     1  UNL1        0.2089
@<TRIPOS>BOND
     1    19    20    1
     2    20    18    1
     3    18    16    1
     4    16    17    2
     5    16     1    1
     6     1     2   ar
     7     1    12   ar
     8     2     3    1
     9     2     4   ar
    10     4     5   ar
    11     5     6   ar
    12     5    11   ar
    13     6     7   ar
    14     7     8   ar
    15     8     9   ar
    16     9    10    1
    17     9    11   ar
    18    11    12   ar
    19    12    13    1
    20    13    14    1
    21    13    15    1
#	Name:			CHEMBL108143
#	Creating user name:	trannguyen
#	Creation time:		Tue Feb  8 17:54:08 2022


#	Modifying user name:	trannguyen
#	Modification time:	Tue Feb  8 17:54:08 2022

@<TRIPOS>MOLECULE
CHEMBL108143
 28 30 0 0 0
SMALL
GASTEIGER

@<TRIPOS>ATOM
      1 C          -1.9737   59.7214   76.8552 C.3     1  UNL1        0.0518
      2 C          -1.8402   58.2275   76.7677 C.ar    1  UNL1        0.0578
      3 N          -0.7328   57.7307   77.3629 N.ar    1  UNL1       -0.2498
      4 C          -0.4649   56.4257   77.2866 C.ar    1  UNL1        0.0829
      5 C           0.6836   56.0115   77.9490 C.ar    1  UNL1        0.0192
      6 C           1.1109   54.6889   77.9417 C.ar    1  UNL1        0.0024
      7 C           0.3745   53.7539   77.2384 C.ar    1  UNL1        0.0115
      8 C          -0.7953   54.1456   76.5720 C.ar    1  UNL1        0.0603
      9 CL         -1.6364   52.8575   75.7653 Cl      1  UNL1       -0.0822
     10 C          -1.2692   55.5012   76.5882 C.ar    1  UNL1        0.0409
     11 C          -2.4837   56.0381   76.0170 C.ar    1  UNL1        0.0422
     12 N          -3.3019   55.2313   75.1846 N.pl3   1  UNL1       -0.3571
     13 C          -2.7769   57.4212   76.1159 C.ar    1  UNL1        0.0203
     14 H          -3.1320   54.2339   75.3109 H       1  UNL1        0.1423
     15 H          -4.2949   55.4281   75.2380 H       1  UNL1        0.1423
     16 C          -4.0505   58.0236   75.5517 C.3     1  UNL1        0.1007
     17 N          -5.2499   57.4085   76.1282 N.3     1  UNL1       -0.2576
     18 H          -4.9460   56.9008   76.9619 H       1  UNL1        0.1269
     19 C          -6.2815   58.4029   76.5143 C.3     1  UNL1        0.2694
     20 C          -5.6201   59.4277   77.4438 C.3     1  UNL1        0.0766
     21 C          -6.4800   60.6580   77.2570 C.3     1  UNL1        0.1150
     22 C          -6.9302   60.4896   75.8382 C.2     1  UNL1        0.3183
     23 O          -7.4996   61.3376   75.1675 O.2     1  UNL1       -0.2501
     24 O          -6.6139   59.2396   75.3849 O.3     1  UNL1       -0.4325
     25 C          -7.6226   57.8327   77.1714 C.3     1  UNL1        0.4446
     26 F          -8.7403   58.4197   76.6855 F       1  UNL1       -0.1654
     27 F          -7.7625   56.5002   76.9734 F       1  UNL1       -0.1654
     28 F          -7.6294   58.0301   78.5132 F       1  UNL1       -0.1654
@<TRIPOS>BOND
     1     1     2    1
     2     2     3   ar
     3     2    13   ar
     4     3     4   ar
     5     4     5   ar
     6     4    10   ar
     7     5     6   ar
     8     6     7   ar
     9     7     8   ar
    10     8     9    1
    11     8    10   ar
    12    10    11   ar
    13    11    12    1
    14    11    13   ar
    15    12    14    1
    16    12    15    1
    17    13    16    1
    18    16    17    1
    19    17    19    1
    20    17    18    1
    21    19    25    1
    22    19    20    1
    23    19    24    1
    24    25    26    1
    25    25    27    1
    26    25    28    1
    27    20    21    1
    28    21    22    1
    29    22    23    2
    30    22    24    1
#	Name:			CHEMBL109152
#	Creating user name:	trannguyen
#	Creation time:		Tue Feb  8 17:54:08 2022


#	Modifying user name:	trannguyen
#	Modification time:	Tue Feb  8 17:54:08 2022

@<TRIPOS>MOLECULE
CHEMBL109152
 27 29 0 0 0
SMALL
GASTEIGER

@<TRIPOS>ATOM
      1 C           1.6172   59.9305   78.2149 C.ar    1  UNL1        0.0153
      2 C           2.0725   58.6247   78.4648 C.ar    1  UNL1        0.0574
      3 C           1.3289   57.3641   78.1409 C.3     1  UNL1        0.0518
      4 N           3.2477   58.3527   79.0917 N.ar    1  UNL1       -0.2498
      5 C           4.0523   59.3404   79.4722 C.ar    1  UNL1        0.0842
      6 C           5.2066   58.9868   80.1632 C.ar    1  UNL1        0.0193
      7 C           6.1254   59.9366   80.6034 C.ar    1  UNL1        0.0039
      8 C           5.8901   61.2723   80.3257 C.ar    1  UNL1        0.0298
      9 C           4.7312   61.6323   79.6363 C.ar    1  UNL1        0.1427
     10 F           4.5536   62.9385   79.3729 F       1  UNL1       -0.2041
     11 C           3.7658   60.6844   79.2072 C.ar    1  UNL1        0.0577
     12 C           2.5312   60.9745   78.5292 C.ar    1  UNL1        0.0431
     13 N           2.1492   62.3355   78.3714 N.pl3   1  UNL1       -0.3571
     14 H           2.9508   62.9662   78.4433 H       1  UNL1        0.1423
     15 H           1.6392   62.5177   77.5131 H       1  UNL1        0.1423
     16 C           0.1938   60.2218   77.7389 C.3     1  UNL1        0.0865
     17 S          -1.0291   60.4975   79.0712 S.3     1  UNL1       -0.1306
     18 C          -1.8135   58.8411   79.1920 C.3     1  UNL1        0.0841
     19 C          -4.3583   58.6250   76.2671 C.ar    1  UNL1        0.0344
     20 C          -4.0166   57.3879   75.7171 C.ar    1  UNL1        0.0028
     21 C          -3.0142   56.6227   76.3008 C.ar    1  UNL1       -0.0002
     22 C          -2.3228   57.1063   77.4189 C.ar    1  UNL1       -0.0034
     23 C          -2.6058   58.3735   77.9702 C.ar    1  UNL1       -0.0112
     24 C          -3.6511   59.1130   77.3823 C.ar    1  UNL1       -0.0006
     25 C          -6.4121   60.1341   76.6431 C.3     1  UNL1        0.0773
     26 C          -5.4804   59.4233   75.6988 C.2     1  UNL1        0.1735
     27 O          -5.6294   59.5031   74.4661 O.2     1  UNL1       -0.2913
@<TRIPOS>BOND
     1    25    26    1
     2    26    27    2
     3    26    19    1
     4    19    20   ar
     5    19    24   ar
     6    20    21   ar
     7    21    22   ar
     8    22    23   ar
     9    23    18    1
    10    23    24   ar
    11    18    17    1
    12    17    16    1
    13    16     1    1
    14     1     2   ar
    15     1    12   ar
    16     2     3    1
    17     2     4   ar
    18     4     5   ar
    19     5     6   ar
    20     5    11   ar
    21     6     7   ar
    22     7     8   ar
    23     8     9   ar
    24     9    10    1
    25     9    11   ar
    26    11    12   ar
    27    12    13    1
    28    13    14    1
    29    13    15    1
#	Name:			CHEMBL118539
#	Creating user name:	trannguyen
#	Creation time:		Tue Feb  8 17:54:08 2022


#	Modifying user name:	trannguyen
#	Modification time:	Tue Feb  8 17:54:08 2022

@<TRIPOS>MOLECULE
CHEMBL118539
 7 6 0 0 0
SMALL
GASTEIGER

@<TRIPOS>ATOM
      1 C           5.3278   69.0918   62.7655 C.3     1  UNL1        0.1710
      2 N           3.9858   68.3534   62.8037 N.4     1  UNL1        0.3116
      3 C           3.2378   68.6364   61.4964 C.3     1  UNL1        0.1710
      4 C           4.2708   66.8617   62.8692 C.3     1  UNL1        0.1710
      5 C           3.1530   68.7697   64.0222 C.3     1  UNL1        0.1271
      6 C           3.9613   69.2301   65.2392 C.3     1  UNL1        0.1556
      7 CL          2.8813   69.3307   66.6579 Cl      1  UNL1       -0.1072
@<TRIPOS>UNITY_ATOM_ATTR
2 1
charge 1
@<TRIPOS>BOND
     1     1     2    1
     2     2     3    1
     3     2     4    1
     4     2     5    1
     5     5     6    1
     6     6     7    1
#	Name:			CHEMBL121810
#	Creating user name:	trannguyen
#	Creation time:		Tue Feb  8 17:54:08 2022


#	Modifying user name:	trannguyen
#	Modification time:	Tue Feb  8 17:54:08 2022

@<TRIPOS>MOLECULE
CHEMBL121810
 29 32 0 0 0
SMALL
GASTEIGER

@<TRIPOS>ATOM
      1 C          -2.7401   59.3130   76.7727 C.ar    1  UNL1        0.1498
      2 C          -2.7616   57.9101   76.8325 C.ar    1  UNL1        0.0389
      3 C          -1.5863   57.1904   77.0203 C.ar    1  UNL1        0.0174
      4 C          -0.4131   57.8877   77.2313 C.ar    1  UNL1        0.0459
      5 C          -0.4179   59.3037   77.2785 C.ar    1  UNL1       -0.0020
      6 C          -1.5726   60.0361   77.0367 C.ar    1  UNL1        0.0347
      7 C           0.9959   59.7538   77.5536 C.3     1  UNL1        0.0746
      8 C           1.6848   60.0912   76.2119 C.3     1  UNL1        0.0091
      9 C           1.2592   60.8609   78.5809 C.3     1  UNL1        0.0749
     10 C           2.4552   60.4935   79.4911 C.3     1  UNL1        0.1898
     11 N           3.4804   59.6872   78.7960 N.4     1  UNL1        0.5021
     12 C           4.5243   59.2625   79.7276 C.3     1  UNL1        0.2564
     13 O           2.9274   58.4154   78.2677 O.3     1  UNL1       -0.2427
     14 C           1.5006   58.4332   78.1935 C.3     1  UNL1        0.2482
     15 N           0.8887   57.3540   77.4132 N.pl3   1  UNL1       -0.2799
     16 C           1.0139   55.9870   77.8677 C.3     1  UNL1        0.1145
     17 O          -3.9191   60.0209   76.4667 O.3     1  UNL1       -0.4100
     18 N          -5.8472   59.0666   77.1218 N.am    1  UNL1       -0.2499
     19 C          -5.0291   59.2731   76.0478 C.2     1  UNL1        0.4099
     20 O          -5.2269   58.8970   74.8937 O.2     1  UNL1       -0.2257
     21 H          -5.4739   59.4434   77.9811 H       1  UNL1        0.1582
     22 C          -8.2542   59.4192   77.1754 C.ar    1  UNL1       -0.0086
     23 C          -9.5608   58.8912   77.1696 C.ar    1  UNL1       -0.0030
     24 C          -9.7837   57.5173   77.1173 C.ar    1  UNL1       -0.0002
     25 C          -8.7026   56.6484   77.0717 C.ar    1  UNL1        0.0013
     26 C          -7.3989   57.1529   77.0797 C.ar    1  UNL1        0.0144
     27 C          -7.1549   58.5350   77.1364 C.ar    1  UNL1        0.0492
     28 C          -8.0137   61.5040   75.7606 C.3     1  UNL1        0.0051
     29 C          -8.1155   60.9268   77.1636 C.3     1  UNL1        0.0276
@<TRIPOS>UNITY_ATOM_ATTR
11 1
charge 1
@<TRIPOS>BOND
     1    28    29    1
     2    29    22    1
     3    22    23   ar
     4    22    27   ar
     5    23    24   ar
     6    24    25   ar
     7    25    26   ar
     8    26    27   ar
     9    27    18    1
    10    18    19   am
    11    18    21    1
    12    19    20    2
    13    19    17    1
    14    17     1    1
    15     1     2   ar
    16     1     6   ar
    17     2     3   ar
    18     3     4   ar
    19     4     5   ar
    20     4    15    1
    21     5     6   ar
    22     5     7    1
    23     7     9    1
    24     7    14    1
    25     7     8    1
    26     9    10    1
    27    10    11    1
    28    11    13    1
    29    11    12    1
    30    13    14    1
    31    14    15    1
    32    15    16    1
#	Name:			CHEMBL137039
#	Creating user name:	trannguyen
#	Creation time:		Tue Feb  8 17:54:08 2022


#	Modifying user name:	trannguyen
#	Modification time:	Tue Feb  8 17:54:08 2022

@<TRIPOS>MOLECULE
CHEMBL137039
 33 36 0 0 0
SMALL
GASTEIGER

@<TRIPOS>ATOM
      1 C           1.7251   57.6613   78.6623 C.3     1  UNL1        0.1336
      2 C           0.8026   57.0671   79.7207 C.3     1  UNL1        0.0279
      3 C          -0.5450   57.7746   79.7204 C.3     1  UNL1        0.0063
      4 C          -1.3028   57.6645   78.3694 C.3     1  UNL1        0.0217
      5 C          -2.1341   56.3537   78.4324 C.3     1  UNL1        0.0045
      6 C          -0.3932   57.5883   77.1447 C.2     1  UNL1        0.0093
      7 C          -0.8946   57.7628   75.9033 C.2     1  UNL1       -0.0272
      8 C          -2.3364   58.0890   75.6433 C.3     1  UNL1        0.0298
      9 C          -3.0339   58.8280   76.8143 C.3     1  UNL1        0.0226
     10 C          -4.4090   58.3274   77.1863 C.2     1  UNL1       -0.0490
     11 C          -5.1371   57.3289   76.6719 C.2     1  UNL1       -0.0346
     12 C          -6.4765   57.2063   77.3103 C.3     1  UNL1        0.0270
     13 C          -6.3786   58.1221   78.5525 C.3     1  UNL1        0.0224
     14 C          -5.1484   59.0559   78.2941 C.3     1  UNL1        0.0164
     15 C          -5.4780   60.4753   77.8103 C.3     1  UNL1        0.0041
     16 C          -4.2400   59.0988   79.5383 C.3     1  UNL1        0.0038
     17 C          -2.8548   59.6407   79.2624 C.3     1  UNL1        0.0010
     18 C          -2.1322   58.9673   78.0834 C.3     1  UNL1        0.0079
     19 C           1.1009   57.5426   77.2681 C.2     1  UNL1        0.1864
     20 O           1.8029   57.5519   76.2560 O.2     1  UNL1       -0.2900
     21 C           3.4148   59.3975   79.2573 C.2     1  UNL1        0.2418
     22 O           4.3187   58.5868   79.2638 O.2     1  UNL1       -0.2705
     23 N           2.1074   59.0506   78.9673 N.am    1  UNL1       -0.2962
     24 H           1.3865   59.7517   78.9730 H       1  UNL1        0.1501
     25 C           2.8314   63.2075   80.1529 C.3     1  UNL1        0.0305
     26 C           2.7009   61.7710   79.7348 C.2     1  UNL1       -0.0256
     27 C           3.6860   60.8662   79.5617 C.2     1  UNL1        0.0272
     28 C           5.1549   61.1926   79.7091 C.3     1  UNL1        0.0354
     29 C          -7.7413   58.7347   79.0137 C.3     1  UNL1        0.0582
     30 C          -8.1843   58.2440   80.4119 C.3     1  UNL1        0.0174
     31 N          -8.8466   58.5810   78.0177 N.3     1  UNL1       -0.2716
     32 C         -10.0954   58.1262   78.6470 C.3     1  UNL1        0.0896
     33 C          -9.1449   59.8159   77.2821 C.3     1  UNL1        0.0896
@<TRIPOS>BOND
     1    25    26    1
     2    26    27    2
     3    27    28    1
     4    27    21    1
     5    21    22    2
     6    21    23   am
     7    23    24    1
     8     1     2    1
     9     1    19    1
    10     1    23    1
    11     2     3    1
    12     3     4    1
    13     4     6    1
    14     4    18    1
    15     4     5    1
    16     6     7    2
    17     6    19    1
    18     7     8    1
    19     8     9    1
    20     9    10    1
    21     9    18    1
    22    10    11    2
    23    10    14    1
    24    11    12    1
    25    12    13    1
    26    13    14    1
    27    13    29    1
    28    29    31    1
    29    29    30    1
    30    31    32    1
    31    31    33    1
    32    14    16    1
    33    14    15    1
    34    16    17    1
    35    17    18    1
    36    19    20    2
#	Name:			CHEMBL14193
#	Creating user name:	trannguyen
#	Creation time:		Tue Feb  8 17:54:08 2022


#	Modifying user name:	trannguyen
#	Modification time:	Tue Feb  8 17:54:08 2022

@<TRIPOS>MOLECULE
CHEMBL14193
 10 10 0 0 0
SMALL
GASTEIGER

@<TRIPOS>ATOM
      1 C           4.0085   69.7507   66.8394 C.ar    1  UNL1        0.0424
      2 C           3.8195   70.2266   68.1416 C.ar    1  UNL1        0.0064
      3 C           4.8750   70.8524   68.8103 C.ar    1  UNL1        0.0367
      4 C           6.1040   70.9942   68.1697 C.ar    1  UNL1        0.1337
      5 O           7.1593   71.5980   68.7855 O.3     1  UNL1       -0.5055
      6 C           6.2962   70.5225   66.8749 C.ar    1  UNL1        0.0367
      7 C           5.2450   69.8971   66.2038 C.ar    1  UNL1        0.0064
      8 H           6.8893   71.8759   69.6761 H       1  UNL1        0.2922
      9 O           1.7577   69.0486   66.6101 O.2     1  UNL1       -0.2831
     10 C           2.8876   69.0905   66.1401 C.2     1  UNL1        0.2342
@<TRIPOS>BOND
     1     9    10    2
     2    10     1    1
     3     1     2   ar
     4     1     7   ar
     5     2     3   ar
     6     3     4   ar
     7     4     5    1
     8     4     6   ar
     9     5     8    1
    10     6     7   ar
#	Name:			CHEMBL145957
#	Creating user name:	trannguyen
#	Creation time:		Tue Feb  8 17:54:08 2022


#	Modifying user name:	trannguyen
#	Modification time:	Tue Feb  8 17:54:08 2022

@<TRIPOS>MOLECULE
CHEMBL145957
 8 7 0 0 0
SMALL
GASTEIGER

@<TRIPOS>ATOM
      1 C          -0.6851   53.2842   76.9387 C.3     1  UNL1        0.1710
      2 N          -1.8336   53.4747   75.9276 N.4     1  UNL1        0.3106
      3 C          -1.8309   52.2906   74.9889 C.3     1  UNL1        0.1710
      4 C          -3.1253   53.5474   76.7182 C.3     1  UNL1        0.1710
      5 C          -1.5504   54.8058   75.1844 C.3     1  UNL1        0.1101
      6 C          -2.6347   55.8603   75.4142 C.3     1  UNL1        0.0732
      7 C          -2.0124   57.2406   75.5697 C.3     1  UNL1        0.0737
      8 BR         -3.4235   58.5861   75.4853 Br      1  UNL1       -0.0806
@<TRIPOS>UNITY_ATOM_ATTR
2 1
charge 1
@<TRIPOS>BOND
     1     1     2    1
     2     2     3    1
     3     2     4    1
     4     2     5    1
     5     5     6    1
     6     6     7    1
     7     7     8    1
#	Name:			CHEMBL145973
#	Creating user name:	trannguyen
#	Creation time:		Tue Feb  8 17:54:08 2022


#	Modifying user name:	trannguyen
#	Modification time:	Tue Feb  8 17:54:08 2022

@<TRIPOS>MOLECULE
CHEMBL145973
 14 14 0 0 0
SMALL
GASTEIGER

@<TRIPOS>ATOM
      1 C          -0.3658   55.6943   76.8692 C.3     1  UNL1        0.2353
      2 O           0.6436   55.1201   76.0380 O.3     1  UNL1       -0.3594
      3 C          -0.9615   54.5327   77.7571 C.3     1  UNL1        0.1656
      4 N          -2.1172   53.7621   77.0733 N.4     1  UNL1        0.3117
      5 C          -3.4680   54.3173   77.4749 C.3     1  UNL1        0.1710
      6 C          -2.0592   52.2876   77.4708 C.3     1  UNL1        0.1710
      7 C          -1.9443   53.8450   75.5448 C.3     1  UNL1        0.1419
      8 C          -1.9053   55.3078   75.0721 C.3     1  UNL1        0.2054
      9 O          -1.3800   56.2454   76.0254 O.3     1  UNL1       -0.3235
     10 H           0.9931   55.8328   75.4773 H       1  UNL1        0.2130
     11 C           0.9752   56.2964   78.9880 C.3     1  UNL1        0.0051
     12 C           0.2588   56.8525   77.7364 C.3     1  UNL1        0.0528
     13 C          -0.8382   57.8193   78.2466 C.3     1  UNL1        0.0051
     14 C           1.2652   57.6813   76.9134 C.3     1  UNL1        0.0051
@<TRIPOS>UNITY_ATOM_ATTR
4 1
charge 1
@<TRIPOS>BOND
     1    11    12    1
     2    12    13    1
     3    12    14    1
     4     1    12    1
     5     1     2    1
     6     1     3    1
     7     1     9    1
     8     2    10    1
     9     3     4    1
    10     4     5    1
    11     4     6    1
    12     4     7    1
    13     7     8    1
    14     8     9    1
#	Name:			CHEMBL146080
#	Creating user name:	trannguyen
#	Creation time:		Tue Feb  8 17:54:08 2022


#	Modifying user name:	trannguyen
#	Modification time:	Tue Feb  8 17:54:08 2022

@<TRIPOS>MOLECULE
CHEMBL146080
 34 37 0 0 0
SMALL
GASTEIGER

@<TRIPOS>ATOM
      1 C           1.1879   57.4493   77.0132 C.3     1  UNL1        0.1205
      2 C           0.9432   57.6185   78.4968 C.2     1  UNL1       -0.0130
      3 C           1.0687   58.7725   79.1795 C.2     1  UNL1       -0.0474
      4 C           0.6273   58.8988   80.6208 C.3     1  UNL1        0.0217
      5 C          -0.4458   59.9844   80.7584 C.3     1  UNL1        0.0044
      6 C          -0.0694   61.3222   80.0809 C.3     1  UNL1        0.0012
      7 C          -1.1934   62.3740   80.1808 C.3     1  UNL1        0.0078
      8 C          -0.6194   63.7924   80.0530 C.3     1  UNL1        0.0257
      9 C          -1.8140   64.5673   79.6396 C.2     1  UNL1       -0.0333
     10 C          -2.8009   63.8014   79.1403 C.2     1  UNL1       -0.0348
     11 C          -2.3410   62.3272   79.1235 C.3     1  UNL1        0.0164
     12 C          -3.4227   61.3166   79.5435 C.3     1  UNL1        0.0041
     13 C          -1.8084   61.9775   77.7229 C.3     1  UNL1        0.0038
     14 C          -0.7702   60.8600   77.6959 C.3     1  UNL1        0.0006
     15 C           0.4306   61.1305   78.6221 C.3     1  UNL1        0.0035
     16 C           1.5779   60.0597   78.5481 C.3     1  UNL1        0.0173
     17 C           2.8159   60.5808   79.3403 C.3     1  UNL1        0.0041
     18 C           2.1086   59.8332   77.1079 C.3     1  UNL1        0.0350
     19 C           1.3681   58.7970   76.2690 C.3     1  UNL1        0.1328
     20 O           2.1346   58.6390   75.0657 O.3     1  UNL1       -0.3824
     21 H           1.6623   57.9651   74.5266 H       1  UNL1        0.2104
     22 C           0.0055   55.3398   76.3394 C.2     1  UNL1        0.2418
     23 O           0.9501   54.6095   76.5855 O.2     1  UNL1       -0.2705
     24 N           0.0311   56.7038   76.5100 N.am    1  UNL1       -0.2969
     25 H          -0.8485   57.1939   76.4749 H       1  UNL1        0.1501
     26 C          -2.9376   52.8390   75.7417 C.3     1  UNL1        0.0305
     27 C          -1.6968   53.5302   76.2061 C.2     1  UNL1       -0.0256
     28 C          -1.3145   54.7809   75.8766 C.2     1  UNL1        0.0272
     29 C          -2.1618   55.7531   75.1022 C.3     1  UNL1        0.0354
     30 C          -4.1446   64.2809   78.5970 C.3     1  UNL1        0.0759
     31 C          -3.9473   65.1795   77.3620 C.3     1  UNL1        0.0219
     32 N          -5.0719   64.9307   79.5539 N.3     1  UNL1       -0.2682
     33 C          -6.2465   65.5279   78.9301 C.3     1  UNL1        0.0899
     34 C          -5.4075   64.1800   80.7576 C.3     1  UNL1        0.0899
@<TRIPOS>BOND
     1    26    27    1
     2    27    28    2
     3    28    29    1
     4    28    22    1
     5    22    23    2
     6    22    24   am
     7    24     1    1
     8    24    25    1
     9     1     2    1
    10     1    19    1
    11     2     3    2
    12     3     4    1
    13     3    16    1
    14     4     5    1
    15     5     6    1
    16     6     7    1
    17     6    15    1
    18     7     8    1
    19     7    11    1
    20     8     9    1
    21     9    10    2
    22    10    11    1
    23    30    31    1
    24    30    32    1
    25    30    10    1
    26    32    33    1
    27    32    34    1
    28    11    12    1
    29    11    13    1
    30    13    14    1
    31    14    15    1
    32    15    16    1
    33    16    17    1
    34    16    18    1
    35    18    19    1
    36    19    20    1
    37    20    21    1
#	Name:			CHEMBL146205
#	Creating user name:	trannguyen
#	Creation time:		Tue Feb  8 17:54:08 2022


#	Modifying user name:	trannguyen
#	Modification time:	Tue Feb  8 17:54:08 2022

@<TRIPOS>MOLECULE
CHEMBL146205
 17 18 0 0 0
SMALL
GASTEIGER

@<TRIPOS>ATOM
      1 C          -8.7382   61.2662   79.0890 C.3     1  UNL1        0.1710
      2 N          -8.4922   60.9993   77.6006 N.4     1  UNL1        0.3120
      3 C          -9.7798   60.4706   77.0039 C.3     1  UNL1        0.1710
      4 C          -8.0775   62.3331   76.9377 C.3     1  UNL1        0.1419
      5 C          -7.5542   62.1089   75.5124 C.3     1  UNL1        0.2057
      6 O          -6.4522   61.1946   75.4607 O.3     1  UNL1       -0.3204
      7 C          -6.7615   59.9044   75.9934 C.3     1  UNL1        0.2563
      8 O          -7.7189   59.2882   75.1349 O.3     1  UNL1       -0.3562
      9 C          -7.3128   60.0104   77.4586 C.3     1  UNL1        0.1704
     10 H          -7.2134   59.0144   74.3474 H       1  UNL1        0.2133
     11 C          -5.4958   59.0450   76.0062 C.ar    1  UNL1        0.0341
     12 C          -5.3870   57.9144   76.8358 C.ar    1  UNL1        0.0014
     13 C          -4.2372   57.1190   76.8195 C.ar    1  UNL1        0.0112
     14 C          -3.1827   57.4410   75.9705 C.ar    1  UNL1        0.0577
     15 CL         -1.7686   56.4632   75.9502 Cl      1  UNL1       -0.0822
     16 C          -3.2688   58.5509   75.1347 C.ar    1  UNL1        0.0112
     17 C          -4.4184   59.3460   75.1492 C.ar    1  UNL1        0.0014
@<TRIPOS>UNITY_ATOM_ATTR
2 1
charge 1
@<TRIPOS>BOND
     1     1     2    1
     2     2     3    1
     3     2     4    1
     4     2     9    1
     5     4     5    1
     6     5     6    1
     7     6     7    1
     8     7     8    1
     9     7    11    1
    10     7     9    1
    11     8    10    1
    12    11    12   ar
    13    11    17   ar
    14    12    13   ar
    15    13    14   ar
    16    14    15    1
    17    14    16   ar
    18    16    17   ar
#	Name:			CHEMBL146254
#	Creating user name:	trannguyen
#	Creation time:		Tue Feb  8 17:54:08 2022


#	Modifying user name:	trannguyen
#	Modification time:	Tue Feb  8 17:54:08 2022

@<TRIPOS>MOLECULE
CHEMBL146254
 36 39 0 0 0
SMALL
GASTEIGER

@<TRIPOS>ATOM
      1 C           0.5603   58.9573   76.9074 C.3     1  UNL1        0.1864
      2 C           1.5514   58.8084   78.0879 C.3     1  UNL1        0.1118
      3 C           0.8314   58.3565   79.3578 C.3     1  UNL1        0.0233
      4 C           0.1749   57.0004   79.1246 C.3     1  UNL1        0.0019
      5 C          -0.8465   56.9671   77.9505 C.3     1  UNL1        0.0035
      6 C          -1.1225   55.4570   77.6981 C.3     1  UNL1        0.0001
      7 C          -2.1666   57.7279   78.3263 C.3     1  UNL1        0.0001
      8 C          -2.9016   57.1685   79.6194 C.3     1  UNL1        0.0000
      9 C          -4.4367   57.4253   79.8167 C.3     1  UNL1        0.0000
     10 C          -5.0331   58.3194   78.7042 C.3     1  UNL1        0.0012
     11 C          -4.5164   59.7401   79.0084 C.3     1  UNL1        0.0000
     12 C          -4.4917   57.5798   77.4423 C.3     1  UNL1        0.0000
     13 C          -5.5999   57.5719   76.4178 C.3     1  UNL1        0.0000
     14 C          -6.8135   57.3320   77.3168 C.3     1  UNL1        0.0013
     15 C          -6.6085   58.2715   78.5347 C.3     1  UNL1        0.0147
     16 C          -3.0857   58.0256   77.0928 C.3     1  UNL1        0.0000
     17 C          -2.6207   57.4669   75.7497 C.3     1  UNL1        0.0001
     18 C          -1.1457   57.7026   75.4617 C.3     1  UNL1        0.0036
     19 C          -0.1919   57.6035   76.6693 C.3     1  UNL1        0.0418
     20 N           2.3471   60.0045   78.3532 N.am    1  UNL1       -0.2990
     21 C           3.6058   59.9449   78.9017 C.2     1  UNL1        0.2454
     22 O           4.1817   58.9045   79.2135 O.2     1  UNL1       -0.2702
     23 H           2.0028   60.8951   78.0185 H       1  UNL1        0.1498
     24 C           4.1758   61.2987   79.1392 C.2     1  UNL1        0.0493
     25 C           3.6097   62.3020   79.8391 C.2     1  UNL1       -0.0391
     26 C           2.2952   62.2302   80.5655 C.3     1  UNL1        0.0265
     27 C           4.3126   63.6307   79.9519 C.3     1  UNL1        0.0265
     28 C          -7.4636   59.6060   78.3079 C.3     1  UNL1        0.0576
     29 C          -8.5269   59.8367   79.4086 C.3     1  UNL1        0.0173
     30 N          -8.0529   59.7823   76.9506 N.3     1  UNL1       -0.2716
     31 C          -9.5024   60.0265   76.9764 C.3     1  UNL1        0.0896
     32 C          -7.4150   60.8584   76.1884 C.3     1  UNL1        0.0896
     33 O          -0.3767   60.0317   77.1718 O.3     1  UNL1       -0.4505
     34 C          -0.6881   62.3350   77.6212 C.3     1  UNL1        0.1212
     35 C           0.0087   61.2870   76.8059 C.2     1  UNL1        0.3175
     36 O           0.7979   61.5638   75.9123 O.2     1  UNL1       -0.2501
@<TRIPOS>BOND
     1    34    35    1
     2    35    36    2
     3    35    33    1
     4     1     2    1
     5     1    19    1
     6     1    33    1
     7     2    20    1
     8     2     3    1
     9    20    21   am
    10    20    23    1
    11    21    22    2
    12    21    24    1
    13    24    25    2
    14    25    26    1
    15    25    27    1
    16     3     4    1
    17     4     5    1
    18     5     6    1
    19     5     7    1
    20     5    19    1
    21     7     8    1
    22     7    16    1
    23     8     9    1
    24     9    10    1
    25    10    11    1
    26    10    12    1
    27    10    15    1
    28    12    13    1
    29    12    16    1
    30    13    14    1
    31    14    15    1
    32    15    28    1
    33    28    30    1
    34    28    29    1
    35    30    31    1
    36    30    32    1
    37    16    17    1
    38    17    18    1
    39    18    19    1
#	Name:			CHEMBL146494
#	Creating user name:	trannguyen
#	Creation time:		Tue Feb  8 17:54:08 2022


#	Modifying user name:	trannguyen
#	Modification time:	Tue Feb  8 17:54:08 2022

@<TRIPOS>MOLECULE
CHEMBL146494
 8 7 0 0 0
SMALL
GASTEIGER

@<TRIPOS>ATOM
      1 C           4.6432   69.1673   63.5969 C.3     1  UNL1        0.1140
      2 N           3.7578   68.0904   62.9031 N.4     1  UNL1        0.3108
      3 C           4.7082   66.9780   62.4258 C.3     1  UNL1        0.1710
      4 C           2.7882   67.4715   63.8907 C.3     1  UNL1        0.1710
      5 C           3.0305   68.6477   61.7021 C.3     1  UNL1        0.1710
      6 C           4.3402   69.3268   65.0968 C.3     1  UNL1        0.0870
      7 C           5.4891   70.1589   67.1717 C.2     1  UNL1       -0.0047
      8 C           5.5101   69.8758   65.8675 C.2     1  UNL1       -0.0200
@<TRIPOS>UNITY_ATOM_ATTR
2 1
charge 1
@<TRIPOS>BOND
     1     7     8    2
     2     8     6    1
     3     6     1    1
     4     1     2    1
     5     2     3    1
     6     2     4    1
     7     2     5    1
#	Name:			CHEMBL146674
#	Creating user name:	trannguyen
#	Creation time:		Tue Feb  8 17:54:08 2022


#	Modifying user name:	trannguyen
#	Modification time:	Tue Feb  8 17:54:08 2022

@<TRIPOS>MOLECULE
CHEMBL146674
 11 11 0 0 0
SMALL
GASTEIGER

@<TRIPOS>ATOM
      1 C          -1.8079   53.7750   76.1731 C.3     1  UNL1        0.0675
      2 C          -1.0948   54.9061   75.4379 C.3     1  UNL1        0.2357
      3 O          -1.0591   54.5492   74.0496 O.3     1  UNL1       -0.3593
      4 C          -1.8265   56.2834   75.5000 C.3     1  UNL1        0.1656
      5 N          -1.5864   57.1268   76.7726 N.4     1  UNL1        0.3117
      6 C          -2.4617   56.6372   77.9267 C.3     1  UNL1        0.1710
      7 C          -1.9738   58.5680   76.4803 C.3     1  UNL1        0.1710
      8 C          -0.1011   57.0596   77.1542 C.3     1  UNL1        0.1419
      9 C           0.4388   55.6239   77.1250 C.3     1  UNL1        0.2054
     10 O           0.2715   55.0203   75.8401 O.3     1  UNL1       -0.3235
     11 H          -0.7565   53.6287   74.0122 H       1  UNL1        0.2130
@<TRIPOS>UNITY_ATOM_ATTR
5 1
charge 1
@<TRIPOS>BOND
     1     2     1    1
     2     2     3    1
     3     2     4    1
     4     2    10    1
     5     3    11    1
     6     4     5    1
     7     5     6    1
     8     5     7    1
     9     5     8    1
    10     8     9    1
    11     9    10    1
#	Name:			CHEMBL147334
#	Creating user name:	trannguyen
#	Creation time:		Tue Feb  8 17:54:08 2022


#	Modifying user name:	trannguyen
#	Modification time:	Tue Feb  8 17:54:08 2022

@<TRIPOS>MOLECULE
CHEMBL147334
 13 13 0 0 0
SMALL
GASTEIGER

@<TRIPOS>ATOM
      1 C           4.0299   68.7769   64.3345 C.ar    1  UNL1        0.0355
      2 C           5.0323   69.4701   65.0733 C.ar    1  UNL1        0.0133
      3 C           4.8013   69.8893   66.3870 C.ar    1  UNL1        0.0025
      4 C           3.5870   69.6196   67.0116 C.ar    1  UNL1        0.0142
      5 C           2.5883   68.9234   66.3280 C.ar    1  UNL1        0.0427
      6 N           1.3591   68.6277   66.9682 N.pl3   1  UNL1       -0.3570
      7 C           2.8030   68.5097   65.0082 C.ar    1  UNL1        0.0273
      8 H           1.1894   68.9184   67.9416 H       1  UNL1        0.1424
      9 H           0.6246   68.1018   66.4708 H       1  UNL1        0.1424
     10 C           3.1079   68.5957   62.1092 C.3     1  UNL1        0.0960
     11 N           4.2843   68.3304   62.9538 N.pl3   1  UNL1       -0.3512
     12 C           4.5701   66.8851   62.8775 C.3     1  UNL1        0.0960
     13 C           5.4416   69.0855   62.4101 C.3     1  UNL1        0.0960
@<TRIPOS>BOND
     1    10    11    1
     2    11    12    1
     3    11    13    1
     4    11     1    1
     5     1     2   ar
     6     1     7   ar
     7     2     3   ar
     8     3     4   ar
     9     4     5   ar
    10     5     6    1
    11     5     7   ar
    12     6     8    1
    13     6     9    1
#	Name:			CHEMBL147346
#	Creating user name:	trannguyen
#	Creation time:		Tue Feb  8 17:54:08 2022


#	Modifying user name:	trannguyen
#	Modification time:	Tue Feb  8 17:54:08 2022

@<TRIPOS>MOLECULE
CHEMBL147346
 29 32 0 0 0
SMALL
GASTEIGER

@<TRIPOS>ATOM
      1 C          -7.0657   63.7828   78.2064 C.3     1  UNL1        0.0540
      2 C          -8.2180   63.3546   77.2838 C.3     1  UNL1        0.0157
      3 C          -7.9540   61.9868   76.6414 C.3     1  UNL1        0.0014
      4 C          -7.6515   60.8531   77.6682 C.3     1  UNL1        0.0001
      5 C          -9.0176   60.4556   78.3000 C.3     1  UNL1        0.0000
      6 C          -6.6432   61.3291   78.7555 C.3     1  UNL1        0.0013
      7 C          -6.5339   60.3187   79.8958 C.3     1  UNL1        0.0000
      8 C          -6.2202   58.9016   79.4343 C.3     1  UNL1        0.0000
      9 C          -6.6475   58.4744   78.0106 C.3     1  UNL1        0.0000
     10 C          -7.0159   59.5883   76.9727 C.3     1  UNL1        0.0000
     11 C          -5.8810   59.9512   75.9577 C.3     1  UNL1        0.0000
     12 C          -4.9269   58.8282   75.5284 C.3     1  UNL1        0.0001
     13 C          -4.4109   58.0189   76.7292 C.3     1  UNL1        0.0015
     14 C          -3.5701   58.9205   77.6556 C.3     1  UNL1        0.0001
     15 C          -3.6379   56.7068   76.3356 C.3     1  UNL1        0.0182
     16 C          -4.1723   55.6317   77.3349 C.3     1  UNL1        0.0016
     17 C          -5.1999   56.3027   78.2375 C.3     1  UNL1        0.0001
     18 C          -5.7002   57.4431   77.3747 C.3     1  UNL1        0.0001
     19 C          -6.9345   62.7289   79.3153 C.3     1  UNL1        0.0157
     20 C          -4.7511   64.6081   78.0710 C.3     1  UNL1        0.0858
     21 N          -5.8554   63.9579   77.3848 N.3     1  UNL1       -0.2974
     22 H          -6.0940   64.4952   76.5514 H       1  UNL1        0.1232
     23 C          -2.0723   56.6903   76.3062 C.3     1  UNL1        0.0754
     24 C          -1.4572   57.4710   75.1349 C.3     1  UNL1        0.0215
     25 N          -1.4845   55.3124   76.3470 N.am    1  UNL1       -0.2794
     26 C          -1.5541   54.4876   75.1348 C.3     1  UNL1        0.1148
     27 C          -0.5805   55.0108   77.3633 C.2     1  UNL1        0.2261
     28 C           0.0241   53.6263   77.3849 C.3     1  UNL1        0.0948
     29 O          -0.2869   55.8155   78.2614 O.2     1  UNL1       -0.2749
@<TRIPOS>BOND
     1    20    21    1
     2    21    22    1
     3     1     2    1
     4     1    19    1
     5     1    21    1
     6     2     3    1
     7     3     4    1
     8     4     5    1
     9     4     6    1
    10     4    10    1
    11     6     7    1
    12     6    19    1
    13     7     8    1
    14     8     9    1
    15     9    10    1
    16     9    18    1
    17    10    11    1
    18    11    12    1
    19    12    13    1
    20    13    14    1
    21    13    15    1
    22    13    18    1
    23    15    16    1
    24    23    24    1
    25    23    25    1
    26    23    15    1
    27    25    26    1
    28    25    27   am
    29    27    28    1
    30    27    29    2
    31    16    17    1
    32    17    18    1
#	Name:			CHEMBL147380
#	Creating user name:	trannguyen
#	Creation time:		Tue Feb  8 17:54:08 2022


#	Modifying user name:	trannguyen
#	Modification time:	Tue Feb  8 17:54:08 2022

@<TRIPOS>MOLECULE
CHEMBL147380
 12 11 0 0 0
SMALL
GASTEIGER

@<TRIPOS>ATOM
      1 O           1.7694   57.5181   76.1605 O.3     1  UNL1       -0.4420
      2 C           1.3733   58.7509   75.7447 C.2     1  UNL1        0.3172
      3 O           1.5271   59.0864   74.5772 O.2     1  UNL1       -0.2501
      4 C           0.7741   59.7112   76.7363 C.3     1  UNL1        0.1096
      5 C           2.8661   60.5150   77.9074 C.3     1  UNL1        0.0006
      6 C           1.7001   60.9065   77.0100 C.3     1  UNL1        0.0116
      7 C           1.1621   56.8933   77.2309 C.3     1  UNL1        0.2688
      8 C           0.2585   55.7392   76.7575 C.3     1  UNL1        0.1575
      9 N          -1.2095   56.0185   76.8621 N.4     1  UNL1        0.3135
     10 C          -1.9798   54.7739   77.1031 C.3     1  UNL1        0.1711
     11 C          -1.5003   56.9946   77.9412 C.3     1  UNL1        0.1711
     12 C          -1.6642   56.6029   75.5778 C.3     1  UNL1        0.1711
@<TRIPOS>UNITY_ATOM_ATTR
9 1
charge 1
@<TRIPOS>BOND
     1     5     6    1
     2     6     4    1
     3     4     2    1
     4     2     3    2
     5     2     1    1
     6     1     7    1
     7     7     8    1
     8     8     9    1
     9     9    10    1
    10     9    11    1
    11     9    12    1
#	Name:			CHEMBL147699
#	Creating user name:	trannguyen
#	Creation time:		Tue Feb  8 17:54:08 2022


#	Modifying user name:	trannguyen
#	Modification time:	Tue Feb  8 17:54:08 2022

@<TRIPOS>MOLECULE
CHEMBL147699
 8 7 0 0 0
SMALL
GASTEIGER

@<TRIPOS>ATOM
      1 C           5.3309   69.0741   62.6558 C.3     1  UNL1        0.1710
      2 N           4.0581   68.3125   62.6785 N.4     1  UNL1        0.3113
      3 C           3.2825   68.7337   63.8693 C.3     1  UNL1        0.1710
      4 C           3.2969   68.6430   61.4506 C.3     1  UNL1        0.1710
      5 C           4.3986   66.8574   62.7387 C.3     1  UNL1        0.1208
      6 C           3.7562   66.0704   63.8985 C.3     1  UNL1        0.1145
      7 S           4.4879   64.4070   64.0063 S.3     1  UNL1       -0.1620
      8 H           3.9364   63.9948   62.7781 H       1  UNL1        0.1025
@<TRIPOS>UNITY_ATOM_ATTR
2 1
charge 1
@<TRIPOS>BOND
     1     1     2    1
     2     2     3    1
     3     2     4    1
     4     2     5    1
     5     5     6    1
     6     6     7    1
     7     7     8    1
#	Name:			CHEMBL148369
#	Creating user name:	trannguyen
#	Creation time:		Tue Feb  8 17:54:08 2022


#	Modifying user name:	trannguyen
#	Modification time:	Tue Feb  8 17:54:08 2022

@<TRIPOS>MOLECULE
CHEMBL148369
 9 8 0 0 0
SMALL
GASTEIGER

@<TRIPOS>ATOM
      1 C          -1.5439   53.9737   75.5304 C.3     1  UNL1        0.1419
      2 N          -1.9908   52.5359   75.7593 N.4     1  UNL1        0.3125
      3 C          -1.0981   51.8476   76.7009 C.3     1  UNL1        0.1711
      4 C          -3.3809   52.4856   76.2344 C.3     1  UNL1        0.1711
      5 C          -1.9165   51.8460   74.4439 C.3     1  UNL1        0.1711
      6 C          -0.6503   54.5495   76.6434 C.3     1  UNL1        0.2028
      7 O           0.3869   55.3071   76.0353 O.3     1  UNL1       -0.3476
      8 C          -0.6065   57.1428   77.2050 C.3     1  UNL1        0.0347
      9 C           0.6851   56.4182   76.8553 C.3     1  UNL1        0.1425
@<TRIPOS>UNITY_ATOM_ATTR
2 1
charge 1
@<TRIPOS>BOND
     1     8     9    1
     2     9     7    1
     3     7     6    1
     4     6     1    1
     5     1     2    1
     6     2     3    1
     7     2     4    1
     8     2     5    1
#	Name:			CHEMBL148484
#	Creating user name:	trannguyen
#	Creation time:		Tue Feb  8 17:54:08 2022


#	Modifying user name:	trannguyen
#	Modification time:	Tue Feb  8 17:54:08 2022

@<TRIPOS>MOLECULE
CHEMBL148484
 13 13 0 0 0
SMALL
GASTEIGER

@<TRIPOS>ATOM
      1 C           4.1060   68.8326   64.4922 C.ar    1  UNL1        0.0359
      2 C           2.8474   68.6610   65.1394 C.ar    1  UNL1        0.0133
      3 C           2.6390   69.1220   66.4388 C.ar    1  UNL1        0.0028
      4 C           3.6587   69.7606   67.1359 C.ar    1  UNL1        0.0200
      5 C           4.9131   69.9544   66.5379 C.ar    1  UNL1        0.0930
      6 C           5.1262   69.4960   65.2260 C.ar    1  UNL1        0.0331
      7 C           5.5363   69.0948   62.6019 C.3     1  UNL1        0.0960
      8 N           4.3550   68.3866   63.1143 N.pl3   1  UNL1       -0.3512
      9 C           4.6403   66.9422   63.0900 C.3     1  UNL1        0.0960
     10 C           3.2157   68.6469   62.2195 C.3     1  UNL1        0.0960
     11 N           5.9618   70.6141   67.2498 N.pl3   1  UNL1       -0.1853
     12 O           7.0499   70.1280   67.3128 O.2     1  UNL1       -0.1725
     13 O           5.7397   71.7705   67.8401 O.co2   1  UNL1       -0.7770
@<TRIPOS>UNITY_ATOM_ATTR
13 1
charge -1
@<TRIPOS>BOND
     1     7     8    1
     2     8     9    1
     3     8    10    1
     4     8     1    1
     5     1     2   ar
     6     1     6   ar
     7     2     3   ar
     8     3     4   ar
     9     4     5   ar
    10     5    11    1
    11     5     6   ar
    12    11    12    2
    13    11    13    1
#	Name:			CHEMBL148522
#	Creating user name:	trannguyen
#	Creation time:		Tue Feb  8 17:54:08 2022


#	Modifying user name:	trannguyen
#	Modification time:	Tue Feb  8 17:54:08 2022

@<TRIPOS>MOLECULE
CHEMBL148522
 8 7 0 0 0
SMALL
GASTEIGER

@<TRIPOS>ATOM
      1 C           5.2687   70.0580   67.0019 C.3     1  UNL1        0.0220
      2 C           6.6743   70.4009   67.5103 C.3     1  UNL1        0.0275
      3 C           7.7037   70.9334   69.6890 C.2     1  UNL1       -0.0049
      4 C           6.6299   70.9820   68.8971 C.2     1  UNL1       -0.0261
      5 C           5.3032   69.7079   65.5043 C.3     1  UNL1        0.0725
      6 N           3.9761   69.3156   64.9789 N.3     1  UNL1       -0.2703
      7 C           4.0340   68.0698   64.1926 C.3     1  UNL1        0.0897
      8 C           3.0375   69.1387   66.0998 C.3     1  UNL1        0.0897
@<TRIPOS>BOND
     1     3     4    2
     2     4     2    1
     3     2     1    1
     4     1     5    1
     5     5     6    1
     6     6     7    1
     7     6     8    1
#	Name:			CHEMBL148530
#	Creating user name:	trannguyen
#	Creation time:		Tue Feb  8 17:54:08 2022


#	Modifying user name:	trannguyen
#	Modification time:	Tue Feb  8 17:54:08 2022

@<TRIPOS>MOLECULE
CHEMBL148530
 12 11 0 0 0
SMALL
GASTEIGER

@<TRIPOS>ATOM
      1 S           2.8179   69.1785   66.5288 S.3     1  UNL1       -0.0709
      2 C           3.7864   70.0646   67.6949 C.2     1  UNL1        0.1989
      3 O           3.3399   70.4489   68.8157 O.2     1  UNL1       -0.2845
      4 C           5.3002   70.2566   67.4585 C.3     1  UNL1        0.0759
      5 C           7.1076   70.8840   69.0974 C.3     1  UNL1        0.0005
      6 C           5.9360   71.3875   68.2488 C.3     1  UNL1        0.0087
      7 C           3.9503   69.1492   65.1053 C.3     1  UNL1        0.1258
      8 C           3.1725   68.7695   63.8324 C.3     1  UNL1        0.1215
      9 N           4.0005   68.3739   62.6544 N.4     1  UNL1        0.3113
     10 C           3.2906   68.6393   61.3782 C.3     1  UNL1        0.1710
     11 C           5.3055   69.0812   62.6465 C.3     1  UNL1        0.1710
     12 C           4.2631   66.9183   62.7449 C.3     1  UNL1        0.1710
@<TRIPOS>UNITY_ATOM_ATTR
9 1
charge 1
@<TRIPOS>BOND
     1     5     6    1
     2     6     4    1
     3     4     2    1
     4     2     3    2
     5     2     1    1
     6     1     7    1
     7     7     8    1
     8     8     9    1
     9     9    10    1
    10     9    11    1
    11     9    12    1
#	Name:			CHEMBL148531
#	Creating user name:	trannguyen
#	Creation time:		Tue Feb  8 17:54:08 2022


#	Modifying user name:	trannguyen
#	Modification time:	Tue Feb  8 17:54:08 2022

@<TRIPOS>MOLECULE
CHEMBL148531
 9 8 0 0 0
SMALL
GASTEIGER

@<TRIPOS>ATOM
      1 C          -1.1009   54.3148   76.4000 C.3     1  UNL1        0.1092
      2 C          -1.9703   52.4222   75.1653 C.3     1  UNL1        0.1710
      3 N          -1.6226   52.8953   76.5299 N.4     1  UNL1        0.3106
      4 C          -2.8385   52.8539   77.3593 C.3     1  UNL1        0.1710
      5 C          -0.5928   52.0013   77.0837 C.3     1  UNL1        0.1710
      6 C          -1.5237   55.0327   75.0989 C.3     1  UNL1        0.0619
      7 C          -1.8818   56.5037   75.3599 C.3     1  UNL1        0.0173
      8 C          -3.3433   56.6219   75.7958 C.3     1  UNL1        0.0627
      9 I          -4.0042   58.6499   75.6955 I       1  UNL1       -0.0745
@<TRIPOS>UNITY_ATOM_ATTR
3 1
charge 1
@<TRIPOS>BOND
     1     2     3    1
     2     3     4    1
     3     3     5    1
     4     3     1    1
     5     1     6    1
     6     6     7    1
     7     7     8    1
     8     8     9    1
#	Name:			CHEMBL148907
#	Creating user name:	trannguyen
#	Creation time:		Tue Feb  8 17:54:08 2022


#	Modifying user name:	trannguyen
#	Modification time:	Tue Feb  8 17:54:08 2022

@<TRIPOS>MOLECULE
CHEMBL148907
 10 10 0 0 0
SMALL
GASTEIGER

@<TRIPOS>ATOM
      1 C           2.9915   68.6351   65.3875 C.3     1  UNL1        0.1710
      2 N           3.7390   68.5147   64.0628 N.4     1  UNL1        0.3119
      3 C           4.9044   69.5008   64.1099 C.3     1  UNL1        0.1710
      4 C           4.2626   67.0702   63.9233 C.3     1  UNL1        0.1419
      5 C           4.7902   66.7910   62.5088 C.3     1  UNL1        0.2056
      6 O           3.8159   67.0686   61.4921 O.3     1  UNL1       -0.3199
      7 C           3.3771   68.4225   61.5188 C.3     1  UNL1        0.2900
      8 O           4.4424   69.2817   61.1497 O.3     1  UNL1       -0.3557
      9 C           2.7779   68.8101   62.8979 C.3     1  UNL1        0.1711
     10 H           4.7328   68.9614   60.2766 H       1  UNL1        0.2131
@<TRIPOS>UNITY_ATOM_ATTR
2 1
charge 1
@<TRIPOS>BOND
     1     1     2    1
     2     2     3    1
     3     2     4    1
     4     2     9    1
     5     4     5    1
     6     5     6    1
     7     6     7    1
     8     7     9    1
     9     7     8    1
    10     8    10    1
#	Name:			CHEMBL148939
#	Creating user name:	trannguyen
#	Creation time:		Tue Feb  8 17:54:08 2022


#	Modifying user name:	trannguyen
#	Modification time:	Tue Feb  8 17:54:08 2022

@<TRIPOS>MOLECULE
CHEMBL148939
 19 20 0 0 0
SMALL
GASTEIGER

@<TRIPOS>ATOM
      1 C           0.0755   61.5094   77.0213 C.3     1  UNL1        0.1710
      2 N           0.9245   60.2348   77.0400 N.4     1  UNL1        0.3120
      3 C           2.1633   60.4877   76.2069 C.3     1  UNL1        0.1710
      4 C           1.2944   59.9276   78.5091 C.3     1  UNL1        0.1419
      5 C           1.9093   58.5285   78.6504 C.3     1  UNL1        0.2057
      6 O           1.0557   57.4912   78.1529 O.3     1  UNL1       -0.3204
      7 C           0.7150   57.6534   76.7733 C.3     1  UNL1        0.2563
      8 O           1.9029   57.4829   76.0020 O.3     1  UNL1       -0.3562
      9 C           0.0723   59.0594   76.5069 C.3     1  UNL1        0.1704
     10 H           2.0633   56.5212   75.9983 H       1  UNL1        0.2133
     11 C          -0.2903   56.5763   76.3710 C.ar    1  UNL1        0.0342
     12 C          -0.0585   55.2207   76.6501 C.ar    1  UNL1        0.0018
     13 C          -1.0072   54.2469   76.3195 C.ar    1  UNL1        0.0139
     14 C          -2.1905   54.5917   75.6662 C.ar    1  UNL1        0.0415
     15 N          -3.1870   53.6331   75.4589 N.pl3   1  UNL1       -0.3570
     16 C          -2.4570   55.9427   75.4443 C.ar    1  UNL1        0.0139
     17 C          -1.5156   56.9236   75.7751 C.ar    1  UNL1        0.0018
     18 H          -2.8328   52.6864   75.3574 H       1  UNL1        0.1424
     19 H          -3.8463   53.8720   74.7247 H       1  UNL1        0.1424
@<TRIPOS>UNITY_ATOM_ATTR
2 1
charge 1
@<TRIPOS>BOND
     1     1     2    1
     2     2     3    1
     3     2     4    1
     4     2     9    1
     5     4     5    1
     6     5     6    1
     7     6     7    1
     8     7     8    1
     9     7    11    1
    10     7     9    1
    11     8    10    1
    12    11    12   ar
    13    11    17   ar
    14    12    13   ar
    15    13    14   ar
    16    14    15    1
    17    14    16   ar
    18    15    18    1
    19    15    19    1
    20    16    17   ar
#	Name:			CHEMBL150001
#	Creating user name:	trannguyen
#	Creation time:		Tue Feb  8 17:54:08 2022


#	Modifying user name:	trannguyen
#	Modification time:	Tue Feb  8 17:54:08 2022

@<TRIPOS>MOLECULE
CHEMBL150001
 10 9 0 0 0
SMALL
GASTEIGER

@<TRIPOS>ATOM
      1 C           9.9569   80.5246   77.8967 C.3     1  UNL1        0.0688
      2 C           8.4968   80.9780   77.8678 C.3     1  UNL1        0.0706
      3 C           7.6756   79.5201   79.8683 C.3     1  UNL1        0.0722
      4 C           7.5558   79.9667   78.4422 C.2     1  UNL1        0.1513
      5 O           6.6726   79.4328   77.7451 O.2     1  UNL1       -0.2960
      6 C          10.8837   81.4513   78.7152 C.3     1  UNL1        0.1097
      7 N          11.8923   80.7385   79.5622 N.4     1  UNL1        0.3106
      8 C          12.8428   81.6905   80.1898 C.3     1  UNL1        0.1710
      9 C          11.2365   79.9310   80.6217 C.3     1  UNL1        0.1710
     10 C          12.6680   79.8175   78.6982 C.3     1  UNL1        0.1710
@<TRIPOS>UNITY_ATOM_ATTR
7 1
charge 1
@<TRIPOS>BOND
     1     3     4    1
     2     4     5    2
     3     4     2    1
     4     2     1    1
     5     1     6    1
     6     6     7    1
     7     7     8    1
     8     7     9    1
     9     7    10    1
#	Name:			CHEMBL150054
#	Creating user name:	trannguyen
#	Creation time:		Tue Feb  8 17:54:08 2022


#	Modifying user name:	trannguyen
#	Modification time:	Tue Feb  8 17:54:08 2022

@<TRIPOS>MOLECULE
CHEMBL150054
 10 9 0 0 0
SMALL
GASTEIGER

@<TRIPOS>ATOM
      1 C          -7.3041   74.3897   73.3059 C.3     1  UNL1        0.0610
      2 C          -6.5138   73.9780   74.5596 C.3     1  UNL1        0.0061
      3 C          -7.2409   74.4447   75.8274 C.3     1  UNL1        0.0002
      4 C          -9.2011   73.0866   76.6416 C.3     1  UNL1        0.0000
      5 C          -7.6847   73.2607   76.6927 C.3     1  UNL1        0.0000
      6 C          -7.8434   73.1479   72.5625 C.3     1  UNL1        0.1092
      7 N          -9.2834   73.2615   72.0997 N.4     1  UNL1        0.3106
      8 C         -10.0990   73.9996   73.0780 C.3     1  UNL1        0.1710
      9 C          -9.3662   73.9029   70.7772 C.3     1  UNL1        0.1710
     10 C          -9.8182   71.8794   71.9873 C.3     1  UNL1        0.1710
@<TRIPOS>UNITY_ATOM_ATTR
7 1
charge 1
@<TRIPOS>BOND
     1     4     5    1
     2     5     3    1
     3     3     2    1
     4     2     1    1
     5     1     6    1
     6     6     7    1
     7     7     8    1
     8     7     9    1
     9     7    10    1
#	Name:			CHEMBL150104
#	Creating user name:	trannguyen
#	Creation time:		Tue Feb  8 17:54:08 2022


#	Modifying user name:	trannguyen
#	Modification time:	Tue Feb  8 17:54:08 2022

@<TRIPOS>MOLECULE
CHEMBL150104
 9 8 0 0 0
SMALL
GASTEIGER

@<TRIPOS>ATOM
      1 C          -1.6248   54.0942   75.4558 C.3     1  UNL1        0.1211
      2 N          -1.9630   52.6801   75.8108 N.4     1  UNL1        0.3113
      3 C          -1.0646   52.1575   76.8673 C.3     1  UNL1        0.1710
      4 C          -3.3722   52.5552   76.2525 C.3     1  UNL1        0.1710
      5 C          -1.7826   51.8483   74.5954 C.3     1  UNL1        0.1710
      6 C          -2.8060   55.0875   75.4700 C.3     1  UNL1        0.1185
      7 S          -2.1543   56.7840   75.6355 S.3     1  UNL1       -0.1341
      8 C          -3.7587   58.9578   75.1746 C.3     1  UNL1        0.0125
      9 C          -3.7905   57.5733   75.8070 C.3     1  UNL1        0.0578
@<TRIPOS>UNITY_ATOM_ATTR
2 1
charge 1
@<TRIPOS>BOND
     1     8     9    1
     2     9     7    1
     3     7     6    1
     4     6     1    1
     5     1     2    1
     6     2     3    1
     7     2     4    1
     8     2     5    1
#	Name:			CHEMBL150123
#	Creating user name:	trannguyen
#	Creation time:		Tue Feb  8 17:54:08 2022


#	Modifying user name:	trannguyen
#	Modification time:	Tue Feb  8 17:54:08 2022

@<TRIPOS>MOLECULE
CHEMBL150123
 10 9 0 0 0
SMALL
GASTEIGER

@<TRIPOS>ATOM
      1 C          -2.6823   54.3154   75.5240 C.3     1  UNL1        0.1092
      2 C          -1.3500   52.8129   77.0634 C.3     1  UNL1        0.1710
      3 N          -2.3960   52.8565   75.9694 N.4     1  UNL1        0.3106
      4 C          -2.0083   51.9842   74.7988 C.3     1  UNL1        0.1710
      5 C          -3.7099   52.3062   76.5609 C.3     1  UNL1        0.1710
      6 C          -1.4835   55.2513   75.7213 C.3     1  UNL1        0.0611
      7 C          -1.7697   56.6556   75.1725 C.3     1  UNL1        0.0070
      8 C          -1.1004   57.7313   76.0334 C.3     1  UNL1        0.0124
      9 C          -2.1106   58.7312   76.5752 C.3     1  UNL1        0.0676
     10 BR         -3.7039   58.7176   75.4513 Br      1  UNL1       -0.0808
@<TRIPOS>UNITY_ATOM_ATTR
3 1
charge 1
@<TRIPOS>BOND
     1     2     3    1
     2     3     4    1
     3     3     5    1
     4     3     1    1
     5     1     6    1
     6     6     7    1
     7     7     8    1
     8     8     9    1
     9     9    10    1
#	Name:			CHEMBL152361
#	Creating user name:	trannguyen
#	Creation time:		Tue Feb  8 17:54:08 2022


#	Modifying user name:	trannguyen
#	Modification time:	Tue Feb  8 17:54:08 2022

@<TRIPOS>MOLECULE
CHEMBL152361
 33 36 0 0 0
SMALL
GASTEIGER

@<TRIPOS>ATOM
      1 C          -2.5195   60.2152   77.0097 C.3     1  UNL1        0.0017
      2 C          -1.3699   60.7732   77.8631 C.3     1  UNL1        0.0212
      3 C          -0.0036   60.6106   77.1933 C.3     1  UNL1        0.0894
      4 C           0.8690   58.3936   76.5156 C.2     1  UNL1        0.2269
      5 O           0.6958   58.6078   75.3060 O.2     1  UNL1       -0.2747
      6 N           0.6422   59.3476   77.4806 N.am    1  UNL1       -0.3041
      7 H           0.6674   59.0322   78.4503 H       1  UNL1        0.1494
      8 C           1.3768   57.0622   77.0109 C.3     1  UNL1        0.1113
      9 C          -1.8184   54.1749   77.6803 C.ar    1  UNL1        0.0479
     10 C          -1.0688   54.1717   76.4939 C.ar    1  UNL1        0.0142
     11 C          -0.0542   55.1107   76.2599 C.ar    1  UNL1       -0.0025
     12 C           0.2695   56.0592   77.2342 C.ar    1  UNL1       -0.0130
     13 C          -0.4649   56.0709   78.4231 C.ar    1  UNL1       -0.0025
     14 C          -1.4952   55.1465   78.6368 C.ar    1  UNL1        0.0142
     15 C          -3.5174   52.7558   76.6345 C.3     1  UNL1        0.1122
     16 N          -2.8559   53.2426   77.8428 N.pl3   1  UNL1       -0.3041
     17 C          -3.7458   53.5424   78.9649 C.3     1  UNL1        0.1122
     18 C          -2.7480   58.7135   77.2345 C.3     1  UNL1        0.0001
     19 C          -2.7388   57.9330   75.9079 C.3     1  UNL1        0.0014
     20 C          -3.7247   56.7584   75.9271 C.3     1  UNL1        0.0171
     21 C          -4.7613   56.8126   77.0636 C.3     1  UNL1        0.0685
     22 N          -6.1564   57.0201   76.6350 N.3     1  UNL1       -0.2996
     23 H          -6.7334   56.2883   77.0485 H       1  UNL1        0.1232
     24 C          -6.7226   58.3424   77.0099 C.3     1  UNL1        0.0419
     25 C          -8.2744   58.3043   77.0058 C.3     1  UNL1        0.0144
     26 C          -8.8641   59.6685   77.3818 C.3     1  UNL1        0.0013
     27 C          -8.3461   60.0623   78.7754 C.3     1  UNL1        0.0001
     28 C          -6.8147   60.1967   78.7537 C.3     1  UNL1        0.0013
     29 C          -6.4132   61.2468   77.7084 C.3     1  UNL1        0.0001
     30 C          -6.8927   60.8041   76.3173 C.3     1  UNL1        0.0013
     31 C          -8.4261   60.7043   76.3391 C.3     1  UNL1        0.0001
     32 C          -6.2849   59.4222   75.9703 C.3     1  UNL1        0.0144
     33 C          -6.1981   58.8345   78.3860 C.3     1  UNL1        0.0144
@<TRIPOS>BOND
     1    15    16    1
     2    16    17    1
     3    16     9    1
     4     9    10   ar
     5     9    14   ar
     6    10    11   ar
     7    11    12   ar
     8    12     8    1
     9    12    13   ar
    10     8     4    1
    11     4     5    2
    12     4     6   am
    13     6     3    1
    14     6     7    1
    15     3     2    1
    16     2     1    1
    17     1    18    1
    18    18    19    1
    19    19    20    1
    20    20    21    1
    21    21    22    1
    22    22    24    1
    23    22    23    1
    24    24    25    1
    25    24    32    1
    26    24    33    1
    27    25    26    1
    28    26    27    1
    29    26    31    1
    30    27    28    1
    31    28    29    1
    32    28    33    1
    33    29    30    1
    34    30    31    1
    35    30    32    1
    36    13    14   ar
#	Name:			CHEMBL153934
#	Creating user name:	trannguyen
#	Creation time:		Tue Feb  8 17:54:08 2022


#	Modifying user name:	trannguyen
#	Modification time:	Tue Feb  8 17:54:08 2022

@<TRIPOS>MOLECULE
CHEMBL153934
 36 39 0 0 0
SMALL
GASTEIGER

@<TRIPOS>ATOM
      1 C           3.6627   62.0551   67.8122 C.3     1  UNL1        0.0001
      2 C           3.3498   63.3667   67.0949 C.3     1  UNL1        0.0017
      3 C           4.1737   63.5364   65.8187 C.3     1  UNL1        0.0212
      4 C           3.2759   63.9508   64.6550 C.3     1  UNL1        0.0894
      5 C           2.4739   66.2898   64.4285 C.2     1  UNL1        0.2269
      6 O           1.3662   66.0522   64.8916 O.2     1  UNL1       -0.2747
      7 N           3.4788   65.3420   64.2943 N.am    1  UNL1       -0.3041
      8 H           4.3707   65.5970   63.8840 H       1  UNL1        0.1494
      9 C           2.8990   67.6769   63.9554 C.3     1  UNL1        0.1113
     10 C           4.6888   70.1037   67.1247 C.ar    1  UNL1        0.0479
     11 C           5.3947   69.7722   65.9583 C.ar    1  UNL1        0.0142
     12 C           4.8230   69.0071   64.9335 C.ar    1  UNL1       -0.0025
     13 C           3.5135   68.5272   65.0425 C.ar    1  UNL1       -0.0130
     14 C           2.7799   68.8731   66.1807 C.ar    1  UNL1       -0.0025
     15 C           3.3698   69.6238   67.2047 C.ar    1  UNL1        0.0142
     16 C           4.6186   70.8607   69.4576 C.3     1  UNL1        0.1122
     17 N           5.2874   70.8315   68.1601 N.pl3   1  UNL1       -0.3041
     18 C           6.7488   70.8976   68.2158 C.3     1  UNL1        0.1122
     19 C           2.4242   61.5342   68.5432 C.3     1  UNL1        0.0000
     20 C           2.7651   60.3332   69.4207 C.3     1  UNL1        0.0000
     21 C           2.1074   60.4478   70.7967 C.3     1  UNL1        0.0000
     22 C           2.2851   59.1937   71.6544 C.3     1  UNL1        0.0014
     23 C           3.1627   59.4338   72.8871 C.3     1  UNL1        0.0171
     24 C           2.3947   59.2806   74.2031 C.3     1  UNL1        0.0685
     25 N           2.7334   60.3568   75.1322 N.3     1  UNL1       -0.2996
     26 H           2.6481   61.2588   74.6555 H       1  UNL1        0.1232
     27 C           1.9469   60.3816   76.3734 C.3     1  UNL1        0.0419
     28 C           1.0608   59.1093   76.3594 C.3     1  UNL1        0.0144
     29 C           0.1973   59.0327   77.6291 C.3     1  UNL1        0.0013
     30 C           1.1136   59.0014   78.8622 C.3     1  UNL1        0.0001
     31 C           1.9806   60.2688   78.9056 C.3     1  UNL1        0.0013
     32 C           1.0740   61.5098   78.9614 C.3     1  UNL1        0.0001
     33 C           0.1487   61.5463   77.7334 C.3     1  UNL1        0.0013
     34 C          -0.7080   60.2719   77.7013 C.3     1  UNL1        0.0001
     35 C           1.0076   61.6138   76.4583 C.3     1  UNL1        0.0144
     36 C           2.8441   60.3339   77.6356 C.3     1  UNL1        0.0144
@<TRIPOS>BOND
     1    16    17    1
     2    17    18    1
     3    17    10    1
     4    10    11   ar
     5    10    15   ar
     6    11    12   ar
     7    12    13   ar
     8    13     9    1
     9    13    14   ar
    10     9     5    1
    11     5     6    2
    12     5     7   am
    13     7     4    1
    14     7     8    1
    15     4     3    1
    16     3     2    1
    17     2     1    1
    18     1    19    1
    19    19    20    1
    20    20    21    1
    21    21    22    1
    22    22    23    1
    23    23    24    1
    24    24    25    1
    25    25    27    1
    26    25    26    1
    27    27    28    1
    28    27    35    1
    29    27    36    1
    30    28    29    1
    31    29    30    1
    32    29    34    1
    33    30    31    1
    34    31    32    1
    35    31    36    1
    36    32    33    1
    37    33    34    1
    38    33    35    1
    39    14    15   ar
#	Name:			CHEMBL1555
#	Creating user name:	trannguyen
#	Creation time:		Tue Feb  8 17:54:08 2022


#	Modifying user name:	trannguyen
#	Modification time:	Tue Feb  8 17:54:08 2022

@<TRIPOS>MOLECULE
CHEMBL1555
 22 25 0 0 0
SMALL
GASTEIGER

@<TRIPOS>ATOM
      1 C           0.4810   58.3797   77.2332 C.ar    1  UNL1        0.1721
      2 C           0.1023   59.3466   78.2938 C.ar    1  UNL1        0.0397
      3 C          -1.2592   58.7625   78.7586 C.ar    1  UNL1        0.0001
      4 C          -1.9463   57.7720   78.4233 C.ar    1  UNL1       -0.0066
      5 C          -1.8863   57.5144   77.2652 C.ar    1  UNL1        0.0187
      6 C          -0.7294   57.8640   76.6420 C.ar    1  UNL1        0.1682
      7 O          -0.5682   57.0934   75.6604 O.3     1  UNL1       -0.4757
      8 C          -1.7530   56.6065   75.2038 C.3     1  UNL1        0.1761
      9 C          -1.5785   55.1020   74.9574 C.3     1  UNL1        0.0779
     10 C          -1.9432   54.1368   76.0801 C.3     1  UNL1        0.1358
     11 O          -0.8384   53.8356   76.9141 O.3     1  UNL1       -0.3799
     12 C          -3.1170   54.6329   76.9106 C.2     1  UNL1       -0.0015
     13 C          -3.5485   55.9121   76.9531 C.2     1  UNL1       -0.0213
     14 C          -2.8658   57.1686   76.1697 C.3     1  UNL1        0.0780
     15 C          -3.9937   58.8586   75.3658 C.3     1  UNL1        0.0290
     16 C          -5.0419   58.5488   76.4986 C.3     1  UNL1        0.0732
     17 N          -4.4647   59.5771   77.3092 N.3     1  UNL1       -0.2677
     18 C          -5.6423   60.5009   77.7307 C.3     1  UNL1        0.0899
     19 C          -3.3604   58.6105   78.4789 C.3     1  UNL1        0.0990
     20 H          -0.1729   53.3722   76.3279 H       1  UNL1        0.2108
     21 C           2.2047   60.4059   75.7979 C.3     1  UNL1        0.2526
     22 O           1.8166   57.1899   76.3148 O.3     1  UNL1       -0.4684
@<TRIPOS>BOND
     1    21    22    1
     2    22     1    1
     3     1     2   ar
     4     1     6   ar
     5     2     3   ar
     6     3     4   ar
     7     4     5   ar
     8     4    19    1
     9     5     6   ar
    10     5    14    1
    11     6     7    1
    12     7     8    1
    13     8     9    1
    14     8    14    1
    15     9    10    1
    16    10    11    1
    17    10    12    1
    18    11    20    1
    19    12    13    2
    20    14    13    1
    21    14    15    1
    22    15    16    1
    23    16    17    1
    24    17    18    1
    25    17    19    1
#	Name:			CHEMBL157336
#	Creating user name:	trannguyen
#	Creation time:		Tue Feb  8 17:54:08 2022


#	Modifying user name:	trannguyen
#	Modification time:	Tue Feb  8 17:54:08 2022

@<TRIPOS>MOLECULE
CHEMBL157336
 38 41 0 0 0
SMALL
GASTEIGER

@<TRIPOS>ATOM
      1 C           3.6593   61.9068   67.9836 C.3     1  UNL1        0.0000
      2 C           3.3835   63.2170   67.2481 C.3     1  UNL1        0.0001
      3 C           4.1962   63.2983   65.9584 C.3     1  UNL1        0.0017
      4 C           3.3720   63.8837   64.8140 C.3     1  UNL1        0.0212
      5 C           4.2393   64.7584   63.9130 C.3     1  UNL1        0.0894
      6 C           3.9467   66.9868   62.9348 C.2     1  UNL1        0.2269
      7 O           4.2636   66.5661   61.8295 O.2     1  UNL1       -0.2747
      8 N           3.8753   66.1524   64.0289 N.am    1  UNL1       -0.3041
      9 H           3.7469   66.5512   64.9504 H       1  UNL1        0.1494
     10 C           3.6265   68.4377   63.2548 C.3     1  UNL1        0.1113
     11 C           4.8170   70.0802   67.1212 C.ar    1  UNL1        0.0479
     12 C           5.7046   70.0052   66.0468 C.ar    1  UNL1        0.0142
     13 C           5.2956   69.4678   64.8192 C.ar    1  UNL1       -0.0025
     14 C           3.9839   69.0033   64.6211 C.ar    1  UNL1       -0.0130
     15 C           3.1007   69.1022   65.7004 C.ar    1  UNL1       -0.0025
     16 C           3.5114   69.6308   66.9222 C.ar    1  UNL1        0.0142
     17 C           4.0727   70.9977   69.2656 C.3     1  UNL1        0.1122
     18 N           5.1464   70.5558   68.3892 N.pl3   1  UNL1       -0.3041
     19 C           6.3431   71.3996   68.3764 C.3     1  UNL1        0.1122
     20 C           2.3844   61.3546   68.6127 C.3     1  UNL1        0.0000
     21 C           2.6867   60.1457   69.4946 C.3     1  UNL1        0.0000
     22 C           2.2988   60.4317   70.9403 C.3     1  UNL1        0.0000
     23 C           2.1107   59.1428   71.7339 C.3     1  UNL1        0.0000
     24 C           3.2862   58.9448   72.6875 C.3     1  UNL1        0.0014
     25 C           3.3221   60.0330   73.7573 C.3     1  UNL1        0.0171
     26 C           2.3750   59.7576   74.9303 C.3     1  UNL1        0.0685
     27 N           2.5469   60.7258   76.0125 N.3     1  UNL1       -0.2996
     28 H           2.7557   61.6419   75.6178 H       1  UNL1        0.1232
     29 C           1.4106   60.8610   76.9380 C.3     1  UNL1        0.0419
     30 C           0.4037   61.9497   76.4830 C.3     1  UNL1        0.0144
     31 C          -0.8019   62.0047   77.4369 C.3     1  UNL1        0.0013
     32 C          -1.5155   60.6441   77.4261 C.3     1  UNL1        0.0001
     33 C          -0.5507   59.5429   77.8892 C.3     1  UNL1        0.0013
     34 C          -0.0813   59.8627   79.3168 C.3     1  UNL1        0.0001
     35 C           0.6530   61.2122   79.3373 C.3     1  UNL1        0.0013
     36 C          -0.2990   62.3192   78.8560 C.3     1  UNL1        0.0001
     37 C           1.8664   61.1462   78.3930 C.3     1  UNL1        0.0144
     38 C           0.6652   59.4982   76.9458 C.3     1  UNL1        0.0144
@<TRIPOS>BOND
     1    17    18    1
     2    18    19    1
     3    18    11    1
     4    11    12   ar
     5    11    16   ar
     6    12    13   ar
     7    13    14   ar
     8    14    10    1
     9    14    15   ar
    10    10     6    1
    11     6     7    2
    12     6     8   am
    13     8     5    1
    14     8     9    1
    15     5     4    1
    16     4     3    1
    17     3     2    1
    18     2     1    1
    19     1    20    1
    20    20    21    1
    21    21    22    1
    22    22    23    1
    23    23    24    1
    24    24    25    1
    25    25    26    1
    26    26    27    1
    27    27    29    1
    28    27    28    1
    29    29    30    1
    30    29    37    1
    31    29    38    1
    32    30    31    1
    33    31    32    1
    34    31    36    1
    35    32    33    1
    36    33    34    1
    37    33    38    1
    38    34    35    1
    39    35    36    1
    40    35    37    1
    41    15    16   ar
#	Name:			CHEMBL157429
#	Creating user name:	trannguyen
#	Creation time:		Tue Feb  8 17:54:08 2022


#	Modifying user name:	trannguyen
#	Modification time:	Tue Feb  8 17:54:08 2022

@<TRIPOS>MOLECULE
CHEMBL157429
 35 38 0 0 0
SMALL
GASTEIGER

@<TRIPOS>ATOM
      1 C          -8.4691   73.5960   74.7694 C.3     1  UNL1        0.0001
      2 C          -7.9252   73.9551   73.3840 C.3     1  UNL1        0.0017
      3 C          -8.2874   72.9280   72.3099 C.3     1  UNL1        0.0212
      4 C          -8.9898   73.5839   71.1258 C.3     1  UNL1        0.0894
      5 C          -9.0598   75.8996   70.2016 C.2     1  UNL1        0.2269
      6 O          -8.9969   75.5522   69.0214 O.2     1  UNL1       -0.2747
      7 N          -9.0720   75.0302   71.2806 N.am    1  UNL1       -0.3041
      8 H          -9.0338   75.4008   72.2255 H       1  UNL1        0.1494
      9 C          -9.1788   77.3644   70.5882 C.3     1  UNL1        0.1113
     10 C          -6.1447   79.8784   68.7144 C.ar    1  UNL1        0.0479
     11 C          -7.4652   79.9041   68.2601 C.ar    1  UNL1        0.0142
     12 C          -8.4529   79.1093   68.8497 C.ar    1  UNL1       -0.0025
     13 C          -8.1593   78.2818   69.9424 C.ar    1  UNL1       -0.0130
     14 C          -6.8313   78.2399   70.3869 C.ar    1  UNL1       -0.0025
     15 C          -5.8437   79.0232   69.7782 C.ar    1  UNL1        0.0142
     16 C          -4.4927   81.6649   68.9107 C.3     1  UNL1        0.1122
     17 N          -5.1967   80.6921   68.0822 N.pl3   1  UNL1       -0.3041
     18 C          -5.6550   81.1913   66.7837 C.3     1  UNL1        0.1122
     19 C          -7.4033   73.6493   75.8700 C.3     1  UNL1        0.0000
     20 C          -7.9088   73.1721   77.2329 C.3     1  UNL1        0.0000
     21 C          -7.9123   74.2812   78.2763 C.3     1  UNL1        0.0014
     22 C          -9.3265   74.6350   78.7342 C.3     1  UNL1        0.0171
     23 C          -9.8190   75.8371   77.9297 C.3     1  UNL1        0.0685
     24 N          -8.8718   76.9421   78.0193 N.3     1  UNL1       -0.2996
     25 H          -8.0285   76.6264   78.4989 H       1  UNL1        0.1232
     26 C          -8.5025   77.5449   76.7264 C.3     1  UNL1        0.0419
     27 C          -8.7545   79.0731   76.8441 C.3     1  UNL1        0.0144
     28 C          -8.3984   79.7896   75.5288 C.3     1  UNL1        0.0013
     29 C          -6.9162   79.5479   75.2033 C.3     1  UNL1        0.0001
     30 C          -6.6495   78.0425   75.0600 C.3     1  UNL1        0.0013
     31 C          -7.5262   77.4719   73.9327 C.3     1  UNL1        0.0001
     32 C          -9.0125   77.7163   74.2431 C.3     1  UNL1        0.0013
     33 C          -9.2637   79.2237   74.3922 C.3     1  UNL1        0.0001
     34 C          -9.3738   77.0090   75.5601 C.3     1  UNL1        0.0144
     35 C          -7.0039   77.3369   76.3802 C.3     1  UNL1        0.0144
@<TRIPOS>BOND
     1    16    17    1
     2    17    18    1
     3    17    10    1
     4    10    11   ar
     5    10    15   ar
     6    11    12   ar
     7    12    13   ar
     8    13     9    1
     9    13    14   ar
    10     9     5    1
    11     5     6    2
    12     5     7   am
    13     7     4    1
    14     7     8    1
    15     4     3    1
    16     3     2    1
    17     2     1    1
    18     1    19    1
    19    19    20    1
    20    20    21    1
    21    21    22    1
    22    22    23    1
    23    23    24    1
    24    24    26    1
    25    24    25    1
    26    26    27    1
    27    26    34    1
    28    26    35    1
    29    27    28    1
    30    28    29    1
    31    28    33    1
    32    29    30    1
    33    30    31    1
    34    30    35    1
    35    31    32    1
    36    32    33    1
    37    32    34    1
    38    14    15   ar
#	Name:			CHEMBL215645
#	Creating user name:	trannguyen
#	Creation time:		Tue Feb  8 17:54:08 2022


#	Modifying user name:	trannguyen
#	Modification time:	Tue Feb  8 17:54:08 2022

@<TRIPOS>MOLECULE
CHEMBL215645
 18 18 0 0 0
SMALL
GASTEIGER

@<TRIPOS>ATOM
      1 C          -1.3203   57.4149   75.5546 C.ar    1  UNL1        0.1498
      2 C          -2.4536   58.2017   75.7132 C.ar    1  UNL1        0.0376
      3 C          -3.6902   57.5782   75.8506 C.ar    1  UNL1        0.0029
      4 C          -3.7892   56.1820   75.8709 C.ar    1  UNL1       -0.0028
      5 C          -2.6555   55.3624   75.7724 C.ar    1  UNL1       -0.0047
      6 C          -1.4305   56.0219   75.5986 C.ar    1  UNL1        0.0347
      7 C          -2.7206   53.8236   75.7077 C.3     1  UNL1        0.0803
      8 C          -3.4177   53.2414   76.9616 C.3     1  UNL1        0.0222
      9 N          -1.4485   53.0810   75.4542 N.3     1  UNL1       -0.2679
     10 C          -0.7339   52.6163   76.6414 C.3     1  UNL1        0.0899
     11 C          -1.5527   51.9892   74.4905 C.3     1  UNL1        0.0899
     12 O          -0.0922   58.0935   75.3312 O.3     1  UNL1       -0.4101
     13 N           1.0212   59.0306   77.1645 N.am    1  UNL1       -0.2439
     14 C           1.7437   58.7747   78.4002 C.3     1  UNL1        0.1183
     15 C           0.9854   57.9925   76.2349 C.2     1  UNL1        0.4095
     16 O           1.7990   57.1022   76.2610 O.2     1  UNL1       -0.2258
     17 C           1.0992   61.4767   76.6365 C.3     1  UNL1        0.0234
     18 C           0.2670   60.2737   77.0646 C.3     1  UNL1        0.0969
@<TRIPOS>BOND
     1    17    18    1
     2    18    13    1
     3    13    14    1
     4    13    15   am
     5    15    16    2
     6    15    12    1
     7    12     1    1
     8     1     2   ar
     9     1     6   ar
    10     2     3   ar
    11     3     4   ar
    12     4     5   ar
    13     5     6   ar
    14     7     8    1
    15     7     9    1
    16     7     5    1
    17     9    10    1
    18     9    11    1
#	Name:			CHEMBL232590
#	Creating user name:	trannguyen
#	Creation time:		Tue Feb  8 17:54:08 2022


#	Modifying user name:	trannguyen
#	Modification time:	Tue Feb  8 17:54:08 2022

@<TRIPOS>MOLECULE
CHEMBL232590
 19 19 0 0 0
SMALL
GASTEIGER

@<TRIPOS>ATOM
      1 C          -0.3056   57.0844   76.5581 C.3     1  UNL1        0.2893
      2 N           1.0004   58.9365   75.6062 N.am    1  UNL1       -0.2920
      3 C           1.0427   57.7851   76.3552 C.2     1  UNL1        0.2674
      4 O           2.0731   57.3674   76.8774 O.2     1  UNL1       -0.2711
      5 H           0.2124   59.0365   74.9750 H       1  UNL1        0.1500
      6 C           2.2065   59.7063   75.3496 C.3     1  UNL1        0.2006
      7 C           2.7637   59.4690   73.9576 C.2     1  UNL1        0.3374
      8 O           3.9606   59.3752   73.6814 O.2     1  UNL1       -0.2482
      9 C           2.1222   59.3353   71.6945 C.3     1  UNL1        0.2557
     10 O           1.7416   59.3123   73.0682 O.3     1  UNL1       -0.4432
     11 O          -1.0914   57.6351   77.6184 O.3     1  UNL1       -0.4656
     12 C          -2.3200   58.1224   77.2455 C.ar    1  UNL1        0.1393
     13 C          -3.3069   58.5443   78.1410 C.ar    1  UNL1        0.0370
     14 C          -4.5330   59.0245   77.6742 C.ar    1  UNL1        0.0064
     15 C          -4.7684   59.1062   76.3032 C.ar    1  UNL1        0.0424
     16 C          -3.7822   58.7200   75.3940 C.ar    1  UNL1        0.0064
     17 C          -2.5574   58.2310   75.8692 C.ar    1  UNL1        0.0370
     18 C          -6.0761   59.6073   75.8420 C.2     1  UNL1        0.2342
     19 O          -6.1809   60.3991   74.9158 O.2     1  UNL1       -0.2831
@<TRIPOS>BOND
     1     9    10    1
     2    10     7    1
     3     7     8    2
     4     7     6    1
     5     6     2    1
     6     2     3   am
     7     2     5    1
     8     3     4    2
     9     3     1    1
    10     1    11    1
    11    11    12    1
    12    12    13   ar
    13    12    17   ar
    14    13    14   ar
    15    14    15   ar
    16    15    18    1
    17    15    16   ar
    18    18    19    2
    19    16    17   ar
#	Name:			CHEMBL235564
#	Creating user name:	trannguyen
#	Creation time:		Tue Feb  8 17:54:08 2022


#	Modifying user name:	trannguyen
#	Modification time:	Tue Feb  8 17:54:08 2022

@<TRIPOS>MOLECULE
CHEMBL235564
 25 25 0 0 0
SMALL
GASTEIGER

@<TRIPOS>ATOM
      1 N           3.0165   67.6803   64.5051 N.am    1  UNL1       -0.2937
      2 C           2.0706   67.2269   65.4034 C.2     1  UNL1        0.2674
      3 O           1.2227   66.3854   65.1189 O.2     1  UNL1       -0.2711
      4 H           3.6538   68.4058   64.8062 H       1  UNL1        0.1500
      5 C           3.1285   67.2131   63.1131 C.3     1  UNL1        0.1721
      6 C           3.0908   68.3160   62.0347 C.2     1  UNL1        0.3351
      7 O           2.0503   68.8819   61.6848 O.2     1  UNL1       -0.2483
      8 O           4.3194   68.5869   61.5232 O.3     1  UNL1       -0.4433
      9 C           5.2029   69.2862   62.4010 C.3     1  UNL1        0.2557
     10 C           4.3156   66.2612   62.8778 C.3     1  UNL1        0.0427
     11 C           4.6980   65.5182   64.1536 C.3     1  UNL1        0.1118
     12 C           4.2464   64.0821   64.1356 C.2     1  UNL1        0.3172
     13 O           4.6538   63.2493   63.3364 O.2     1  UNL1       -0.2501
     14 C           3.8504   63.4554   66.3634 C.3     1  UNL1        0.2556
     15 O           3.3163   63.8633   65.1026 O.3     1  UNL1       -0.4444
     16 C           2.1732   67.8480   66.8013 C.3     1  UNL1        0.2893
     17 O           2.3715   69.2516   66.6764 O.3     1  UNL1       -0.4656
     18 C           3.5776   69.7390   67.1033 C.ar    1  UNL1        0.1393
     19 C           3.5996   70.1626   68.4369 C.ar    1  UNL1        0.0370
     20 C           4.7662   70.6825   69.0049 C.ar    1  UNL1        0.0064
     21 C           5.9318   70.7399   68.2416 C.ar    1  UNL1        0.0424
     22 C           5.9307   70.2950   66.9176 C.ar    1  UNL1        0.0064
     23 C           4.7501   69.8023   66.3457 C.ar    1  UNL1        0.0370
     24 C           7.1673   71.2705   68.8469 C.2     1  UNL1        0.2342
     25 O           7.7644   70.6689   69.7303 O.2     1  UNL1       -0.2831
@<TRIPOS>BOND
     1    14    15    1
     2    15    12    1
     3    12    13    2
     4    12    11    1
     5    11    10    1
     6    10     5    1
     7     5     1    1
     8     5     6    1
     9     1     2   am
    10     1     4    1
    11     2     3    2
    12     2    16    1
    13    16    17    1
    14    17    18    1
    15    18    19   ar
    16    18    23   ar
    17    19    20   ar
    18    20    21   ar
    19    21    24    1
    20    21    22   ar
    21    24    25    2
    22    22    23   ar
    23     6     7    2
    24     6     8    1
    25     8     9    1
#	Name:			CHEMBL2390978
#	Creating user name:	trannguyen
#	Creation time:		Tue Feb  8 17:54:08 2022


#	Modifying user name:	trannguyen
#	Modification time:	Tue Feb  8 17:54:08 2022

@<TRIPOS>MOLECULE
CHEMBL2390978
 44 48 0 0 0
SMALL
GASTEIGER

@<TRIPOS>ATOM
      1 C          -0.9688   62.5592   77.7243 C.3     1  UNL1        0.0213
      2 C          -1.5479   63.8892   77.2448 C.3     1  UNL1        0.0897
      3 C          -3.8199   64.8767   77.4306 C.2     1  UNL1        0.2471
      4 O          -3.8795   65.2204   76.2688 O.2     1  UNL1       -0.2701
      5 N          -2.7188   64.2591   78.0068 N.am    1  UNL1       -0.3008
      6 H          -2.8609   63.7757   78.8806 H       1  UNL1        0.1497
      7 C          -6.1535   64.2653   78.2085 C.ar    1  UNL1        0.0527
      8 C          -7.1159   64.3418   79.2371 C.ar    1  UNL1        0.0148
      9 C          -7.0132   65.2653   80.2770 C.ar    1  UNL1        0.0013
     10 C          -5.9196   66.1157   80.3386 C.ar    1  UNL1        0.0002
     11 C          -4.9053   65.9984   79.3909 C.ar    1  UNL1        0.0058
     12 C          -4.9883   65.0449   78.3541 C.ar    1  UNL1        0.0667
     13 N          -6.3539   63.3561   77.1320 N.pl3   1  UNL1       -0.3127
     14 H          -6.7644   63.8168   76.3108 H       1  UNL1        0.1522
     15 C          -5.9666   58.7537   79.1028 C.3     1  UNL1        0.0307
     16 C          -6.6462   59.7830   78.2426 C.ar    1  UNL1       -0.0246
     17 C          -7.8896   59.4539   77.6827 C.ar    1  UNL1       -0.0045
     18 C          -8.5516   60.3519   76.8601 C.ar    1  UNL1        0.0009
     19 C          -7.9981   61.6063   76.6320 C.ar    1  UNL1        0.0143
     20 C          -6.7963   62.0064   77.2469 C.ar    1  UNL1        0.0440
     21 C          -6.0600   61.0483   77.9797 C.ar    1  UNL1       -0.0124
     22 C          -4.7012   61.3668   78.5521 C.3     1  UNL1        0.0320
     23 C          -0.1934   61.7904   76.6440 C.3     1  UNL1        0.0018
     24 C           1.1396   61.2280   77.1533 C.3     1  UNL1        0.0001
     25 C           1.4160   59.8057   76.6707 C.3     1  UNL1        0.0017
     26 C           1.6251   58.8308   77.8368 C.3     1  UNL1        0.0212
     27 C           1.3540   57.4032   77.3669 C.3     1  UNL1        0.0870
     28 N           0.1353   56.8536   77.9436 N.pl3   1  UNL1       -0.3328
     29 H          -0.2791   57.4975   78.6146 H       1  UNL1        0.1468
     30 C          -0.8942   56.2234   77.1961 C.ar    1  UNL1        0.0431
     31 C          -1.0306   54.8211   77.0029 C.ar    1  UNL1        0.0045
     32 C          -2.0943   54.3732   76.2021 C.ar    1  UNL1        0.0561
     33 N          -3.0375   55.1855   75.6812 N.ar    1  UNL1       -0.2499
     34 C          -2.9665   56.4919   75.9125 C.ar    1  UNL1        0.0829
     35 C          -3.9885   57.2602   75.3766 C.ar    1  UNL1        0.0305
     36 C          -4.0264   58.6361   75.5526 C.ar    1  UNL1        0.0592
     37 CL         -5.3221   59.5500   74.8839 Cl      1  UNL1       -0.0822
     38 C          -3.0252   59.2672   76.2716 C.ar    1  UNL1        0.0115
     39 C          -1.9882   58.5017   76.8200 C.ar    1  UNL1        0.0036
     40 C          -1.9253   57.0874   76.6577 C.ar    1  UNL1        0.0305
     41 C          -2.3123   52.9154   75.8811 C.3     1  UNL1        0.0455
     42 C          -1.0579   52.0693   76.0208 C.3     1  UNL1        0.0066
     43 C          -0.4611   52.3211   77.3862 C.3     1  UNL1        0.0052
     44 C          -0.0581   53.7856   77.5226 C.3     1  UNL1        0.0288
@<TRIPOS>BOND
     1    15    16    1
     2    16    17   ar
     3    16    21   ar
     4    17    18   ar
     5    18    19   ar
     6    19    20   ar
     7    20    13    1
     8    20    21   ar
     9    13     7    1
    10    13    14    1
    11     7     8   ar
    12     7    12   ar
    13     8     9   ar
    14     9    10   ar
    15    10    11   ar
    16    11    12   ar
    17    12     3    1
    18     3     4    2
    19     3     5   am
    20     5     2    1
    21     5     6    1
    22     2     1    1
    23     1    23    1
    24    23    24    1
    25    24    25    1
    26    25    26    1
    27    26    27    1
    28    27    28    1
    29    28    30    1
    30    28    29    1
    31    30    31   ar
    32    30    40   ar
    33    31    32   ar
    34    31    44    1
    35    32    33   ar
    36    32    41    1
    37    33    34   ar
    38    34    35   ar
    39    34    40   ar
    40    35    36   ar
    41    36    37    1
    42    36    38   ar
    43    38    39   ar
    44    39    40   ar
    45    41    42    1
    46    42    43    1
    47    43    44    1
    48    21    22    1
#	Name:			CHEMBL2393089
#	Creating user name:	trannguyen
#	Creation time:		Tue Feb  8 17:54:08 2022


#	Modifying user name:	trannguyen
#	Modification time:	Tue Feb  8 17:54:08 2022

@<TRIPOS>MOLECULE
CHEMBL2393089
 49 53 0 0 0
SMALL
GASTEIGER

@<TRIPOS>ATOM
      1 C           2.7989   60.3694   69.3425 C.3     1  UNL1        0.0000
      2 C           2.6581   61.6320   68.4445 C.3     1  UNL1        0.0001
      3 C           3.9144   62.1011   67.6583 C.3     1  UNL1        0.0017
      4 C           3.6406   63.4290   66.8963 C.3     1  UNL1        0.0213
      5 C           3.6228   63.3934   65.3496 C.3     1  UNL1        0.0897
      6 C           3.1654   65.7589   64.6143 C.2     1  UNL1        0.2471
      7 O           2.0458   65.8373   65.1195 O.2     1  UNL1       -0.2701
      8 N           4.0160   64.6440   64.7330 N.am    1  UNL1       -0.3008
      9 H           5.0143   64.7995   64.6495 H       1  UNL1        0.1497
     10 C           3.8200   68.2444   64.2088 C.ar    1  UNL1        0.0527
     11 C           4.4662   69.1306   63.3068 C.ar    1  UNL1        0.0148
     12 C           4.8354   68.7622   62.0070 C.ar    1  UNL1        0.0013
     13 C           4.5802   67.4772   61.5682 C.ar    1  UNL1        0.0002
     14 C           4.0161   66.5601   62.4487 C.ar    1  UNL1        0.0058
     15 C           3.6943   66.8953   63.7841 C.ar    1  UNL1        0.0667
     16 N           3.4467   68.7486   65.5008 N.pl3   1  UNL1       -0.3127
     17 H           2.5145   69.1753   65.4926 H       1  UNL1        0.1522
     18 C           4.3605   71.0325   69.8911 C.3     1  UNL1        0.0307
     19 C           4.7436   70.6166   68.4980 C.ar    1  UNL1       -0.0246
     20 C           6.0145   70.9764   68.0331 C.ar    1  UNL1       -0.0045
     21 C           6.4192   70.6438   66.7480 C.ar    1  UNL1        0.0009
     22 C           5.5619   69.9323   65.9155 C.ar    1  UNL1        0.0143
     23 C           4.2952   69.5093   66.3620 C.ar    1  UNL1        0.0440
     24 C           3.8534   69.9163   67.6437 C.ar    1  UNL1       -0.0124
     25 C           2.4616   69.6073   68.1337 C.3     1  UNL1        0.0320
     26 C           2.1732   60.4824   70.7455 C.3     1  UNL1        0.0000
     27 C           2.3405   59.2467   71.6812 C.3     1  UNL1        0.0000
     28 C           2.9437   59.4969   73.0781 C.3     1  UNL1        0.0000
     29 C           2.0333   59.0856   74.2732 C.3     1  UNL1        0.0001
     30 C           2.0199   59.9858   75.5422 C.3     1  UNL1        0.0017
     31 C           1.4945   59.1910   76.7701 C.3     1  UNL1        0.0212
     32 C           1.4820   57.6447   76.6855 C.3     1  UNL1        0.0870
     33 N           0.3914   57.0293   77.4327 N.pl3   1  UNL1       -0.3328
     34 H           0.7202   56.3861   78.1505 H       1  UNL1        0.1468
     35 C          -0.8345   56.5741   76.8909 C.ar    1  UNL1        0.0431
     36 C          -0.9504   55.1635   76.7122 C.ar    1  UNL1        0.0045
     37 C          -2.1104   54.6423   76.1310 C.ar    1  UNL1        0.0561
     38 N          -3.1823   55.3902   75.8518 N.ar    1  UNL1       -0.2499
     39 C          -3.1232   56.7089   76.0451 C.ar    1  UNL1        0.0829
     40 C          -4.2893   57.3900   75.7389 C.ar    1  UNL1        0.0305
     41 C          -4.3562   58.7713   75.8027 C.ar    1  UNL1        0.0592
     42 CL         -5.8180   59.5847   75.4168 Cl      1  UNL1       -0.0822
     43 C          -3.2268   59.4899   76.1578 C.ar    1  UNL1        0.0115
     44 C          -2.0492   58.8089   76.4978 C.ar    1  UNL1        0.0036
     45 C          -1.9624   57.3882   76.5057 C.ar    1  UNL1        0.0305
     46 C          -2.2903   53.1803   75.8061 C.3     1  UNL1        0.0455
     47 C          -1.0471   52.3283   76.0131 C.3     1  UNL1        0.0066
     48 C          -0.3248   52.7646   77.2772 C.3     1  UNL1        0.0052
     49 C           0.1504   54.2138   77.1359 C.3     1  UNL1        0.0288
@<TRIPOS>BOND
     1    18    19    1
     2    19    20   ar
     3    19    24   ar
     4    20    21   ar
     5    21    22   ar
     6    22    23   ar
     7    23    16    1
     8    23    24   ar
     9    16    10    1
    10    16    17    1
    11    10    11   ar
    12    10    15   ar
    13    11    12   ar
    14    12    13   ar
    15    13    14   ar
    16    14    15   ar
    17    15     6    1
    18     6     7    2
    19     6     8   am
    20     8     5    1
    21     8     9    1
    22     5     4    1
    23     4     3    1
    24     3     2    1
    25     2     1    1
    26     1    26    1
    27    26    27    1
    28    27    28    1
    29    28    29    1
    30    29    30    1
    31    30    31    1
    32    31    32    1
    33    32    33    1
    34    33    35    1
    35    33    34    1
    36    35    36   ar
    37    35    45   ar
    38    36    37   ar
    39    36    49    1
    40    37    38   ar
    41    37    46    1
    42    38    39   ar
    43    39    40   ar
    44    39    45   ar
    45    40    41   ar
    46    41    42    1
    47    41    43   ar
    48    43    44   ar
    49    44    45   ar
    50    46    47    1
    51    47    48    1
    52    48    49    1
    53    24    25    1
#	Name:			CHEMBL2393105
#	Creating user name:	trannguyen
#	Creation time:		Tue Feb  8 17:54:08 2022


#	Modifying user name:	trannguyen
#	Modification time:	Tue Feb  8 17:54:08 2022

@<TRIPOS>MOLECULE
CHEMBL2393105
 47 51 0 0 0
SMALL
GASTEIGER

@<TRIPOS>ATOM
      1 C           2.2682   60.9595   76.9113 C.2     1  UNL1        0.2242
      2 O           1.4012   61.7066   77.3835 O.2     1  UNL1       -0.2750
      3 N           3.1673   60.2681   77.6917 N.am    1  UNL1       -0.3043
      4 H           3.8802   59.7077   77.2359 H       1  UNL1        0.1494
      5 C           2.4339   60.7632   75.4309 C.3     1  UNL1        0.1062
      6 C           2.3121   59.2836   75.0843 C.3     1  UNL1        0.0993
      7 C           0.3512   58.0974   76.0884 C.2     1  UNL1        0.2471
      8 O           0.9446   57.8347   77.1112 O.2     1  UNL1       -0.2701
      9 N           0.9316   58.8249   75.0526 N.am    1  UNL1       -0.3003
     10 H           0.3497   59.1703   74.3192 H       1  UNL1        0.1498
     11 C          -1.3670   56.2617   75.7217 C.ar    1  UNL1        0.0527
     12 C          -2.7315   55.9106   75.5777 C.ar    1  UNL1        0.0148
     13 C          -3.7396   56.8719   75.5294 C.ar    1  UNL1        0.0013
     14 C          -3.4207   58.2167   75.6517 C.ar    1  UNL1        0.0002
     15 C          -2.0895   58.5959   75.8144 C.ar    1  UNL1        0.0058
     16 C          -1.0607   57.6320   75.8902 C.ar    1  UNL1        0.0667
     17 N          -0.4051   55.2266   75.8588 N.pl3   1  UNL1       -0.3127
     18 H          -0.4332   54.5984   75.0408 H       1  UNL1        0.1522
     19 C          -1.6434   51.8464   79.3124 C.3     1  UNL1        0.0307
     20 C          -0.6532   52.8138   78.7185 C.ar    1  UNL1       -0.0246
     21 C           0.4867   53.1559   79.4552 C.ar    1  UNL1       -0.0045
     22 C           1.3612   54.1280   78.9822 C.ar    1  UNL1        0.0009
     23 C           1.0710   54.8139   77.8003 C.ar    1  UNL1        0.0143
     24 C          -0.0420   54.4738   77.0147 C.ar    1  UNL1        0.0440
     25 C          -0.8706   53.4121   77.4507 C.ar    1  UNL1       -0.0124
     26 C          -1.9403   52.8487   76.5484 C.3     1  UNL1        0.0320
     27 C           3.1722   60.3304   79.1406 C.3     1  UNL1        0.0894
     28 C           3.0352   58.9319   79.7288 C.3     1  UNL1        0.0230
     29 C           1.7989   58.8159   80.6145 C.3     1  UNL1        0.0229
     30 C           0.8010   59.9476   80.3807 C.3     1  UNL1        0.0871
     31 N          -0.0715   59.7174   79.2409 N.pl3   1  UNL1       -0.3328
     32 H           0.3908   59.3566   78.4188 H       1  UNL1        0.1468
     33 C          -1.4739   59.6699   79.2237 C.ar    1  UNL1        0.0431
     34 C          -2.3077   60.8038   79.0284 C.ar    1  UNL1        0.0045
     35 C          -3.6961   60.6049   78.9928 C.ar    1  UNL1        0.0561
     36 N          -4.2783   59.3890   79.0200 N.ar    1  UNL1       -0.2499
     37 C          -3.5152   58.3123   79.1789 C.ar    1  UNL1        0.0829
     38 C          -4.1819   57.0968   79.1932 C.ar    1  UNL1        0.0305
     39 C          -3.5081   55.9051   79.4180 C.ar    1  UNL1        0.0592
     40 CL         -4.3723   54.4178   79.4302 Cl      1  UNL1       -0.0822
     41 C          -2.1431   55.9185   79.6446 C.ar    1  UNL1        0.0115
     42 C          -1.4527   57.1354   79.5979 C.ar    1  UNL1        0.0036
     43 C          -2.1117   58.3735   79.3368 C.ar    1  UNL1        0.0305
     44 C          -4.6754   61.7472   78.8866 C.3     1  UNL1        0.0455
     45 C          -4.0882   63.0831   79.3147 C.3     1  UNL1        0.0066
     46 C          -2.7975   63.3032   78.5589 C.3     1  UNL1        0.0052
     47 C          -1.7883   62.2190   78.9171 C.3     1  UNL1        0.0288
@<TRIPOS>BOND
     1    19    20    1
     2    20    21   ar
     3    20    25   ar
     4    21    22   ar
     5    22    23   ar
     6    23    24   ar
     7    24    17    1
     8    24    25   ar
     9    17    11    1
    10    17    18    1
    11    11    12   ar
    12    11    16   ar
    13    12    13   ar
    14    13    14   ar
    15    14    15   ar
    16    15    16   ar
    17    16     7    1
    18     7     8    2
    19     7     9   am
    20     9     6    1
    21     9    10    1
    22     6     5    1
    23     5     1    1
    24     1     2    2
    25     1     3   am
    26     3    27    1
    27     3     4    1
    28    27    28    1
    29    28    29    1
    30    29    30    1
    31    30    31    1
    32    31    33    1
    33    31    32    1
    34    33    34   ar
    35    33    43   ar
    36    34    35   ar
    37    34    47    1
    38    35    36   ar
    39    35    44    1
    40    36    37   ar
    41    37    38   ar
    42    37    43   ar
    43    38    39   ar
    44    39    40    1
    45    39    41   ar
    46    41    42   ar
    47    42    43   ar
    48    44    45    1
    49    45    46    1
    50    46    47    1
    51    25    26    1
#	Name:			CHEMBL2393108
#	Creating user name:	trannguyen
#	Creation time:		Tue Feb  8 17:54:08 2022


#	Modifying user name:	trannguyen
#	Modification time:	Tue Feb  8 17:54:08 2022

@<TRIPOS>MOLECULE
CHEMBL2393108
 43 47 0 0 0
SMALL
GASTEIGER

@<TRIPOS>ATOM
      1 C          -3.4465   58.3927   75.4093 C.3     1  UNL1        0.0213
      2 C          -3.7494   57.1023   76.1711 C.3     1  UNL1        0.0897
      3 C          -2.0246   55.9685   77.5418 C.2     1  UNL1        0.2471
      4 O          -2.4786   56.4172   78.6034 O.2     1  UNL1       -0.2701
      5 N          -2.5576   56.2790   76.3061 N.am    1  UNL1       -0.3008
      6 H          -2.3149   55.6820   75.5210 H       1  UNL1        0.1497
      7 C           0.3709   55.3802   78.1037 C.ar    1  UNL1        0.0527
      8 C           1.3644   54.3945   78.2295 C.ar    1  UNL1        0.0148
      9 C           1.1933   53.1173   77.7035 C.ar    1  UNL1        0.0013
     10 C           0.0014   52.7905   77.0719 C.ar    1  UNL1        0.0002
     11 C          -1.0383   53.7222   77.0125 C.ar    1  UNL1        0.0058
     12 C          -0.8794   55.0098   77.5645 C.ar    1  UNL1        0.0667
     13 N           0.6077   56.6822   78.6209 N.pl3   1  UNL1       -0.3127
     14 H          -0.1807   56.9833   79.2111 H       1  UNL1        0.1522
     15 C           3.0291   61.0356   78.7018 C.3     1  UNL1        0.0307
     16 C           2.3278   59.9304   77.9617 C.ar    1  UNL1       -0.0246
     17 C           2.0590   60.0935   76.5940 C.ar    1  UNL1       -0.0045
     18 C           1.3213   59.1430   75.9004 C.ar    1  UNL1        0.0009
     19 C           0.8256   58.0332   76.5757 C.ar    1  UNL1        0.0143
     20 C           1.1325   57.8044   77.9278 C.ar    1  UNL1        0.0440
     21 C           1.9046   58.7552   78.6272 C.ar    1  UNL1       -0.0124
     22 C           2.2905   58.5210   80.0678 C.3     1  UNL1        0.0320
     23 C          -4.6551   59.3294   75.2574 C.3     1  UNL1        0.0018
     24 C          -5.8189   58.9934   76.1992 C.3     1  UNL1        0.0018
     25 C          -6.6271   60.2384   76.6062 C.3     1  UNL1        0.0212
     26 C          -7.1364   60.1300   78.0535 C.3     1  UNL1        0.0870
     27 N          -6.1243   60.6176   78.9950 N.pl3   1  UNL1       -0.3328
     28 H          -5.6406   59.8317   79.4185 H       1  UNL1        0.1468
     29 C          -5.2281   61.6823   78.7008 C.ar    1  UNL1        0.0431
     30 C          -3.8292   61.3801   78.6521 C.ar    1  UNL1        0.0045
     31 C          -2.9197   62.4392   78.5439 C.ar    1  UNL1        0.0561
     32 N          -3.3002   63.7150   78.3396 N.ar    1  UNL1       -0.2499
     33 C          -4.5943   64.0233   78.3857 C.ar    1  UNL1        0.0829
     34 C          -4.8807   65.3771   78.2657 C.ar    1  UNL1        0.0305
     35 C          -6.1658   65.8689   78.4410 C.ar    1  UNL1        0.0592
     36 CL         -6.4702   67.5591   78.3843 Cl      1  UNL1       -0.0822
     37 C          -7.1945   64.9964   78.7174 C.ar    1  UNL1        0.0115
     38 C          -6.9189   63.6300   78.8056 C.ar    1  UNL1        0.0036
     39 C          -5.6198   63.0744   78.6189 C.ar    1  UNL1        0.0305
     40 C          -1.4273   62.2592   78.6852 C.3     1  UNL1        0.0455
     41 C          -1.0200   60.8973   79.2298 C.3     1  UNL1        0.0066
     42 C          -1.7880   59.8209   78.4854 C.3     1  UNL1        0.0052
     43 C          -3.2904   59.9634   78.7627 C.3     1  UNL1        0.0288
@<TRIPOS>BOND
     1    15    16    1
     2    16    17   ar
     3    16    21   ar
     4    17    18   ar
     5    18    19   ar
     6    19    20   ar
     7    20    13    1
     8    20    21   ar
     9    13     7    1
    10    13    14    1
    11     7     8   ar
    12     7    12   ar
    13     8     9   ar
    14     9    10   ar
    15    10    11   ar
    16    11    12   ar
    17    12     3    1
    18     3     4    2
    19     3     5   am
    20     5     2    1
    21     5     6    1
    22     2     1    1
    23     1    23    1
    24    23    24    1
    25    24    25    1
    26    25    26    1
    27    26    27    1
    28    27    29    1
    29    27    28    1
    30    29    30   ar
    31    29    39   ar
    32    30    31   ar
    33    30    43    1
    34    31    32   ar
    35    31    40    1
    36    32    33   ar
    37    33    34   ar
    38    33    39   ar
    39    34    35   ar
    40    35    36    1
    41    35    37   ar
    42    37    38   ar
    43    38    39   ar
    44    40    41    1
    45    41    42    1
    46    42    43    1
    47    21    22    1
#	Name:			CHEMBL293410
#	Creating user name:	trannguyen
#	Creation time:		Tue Feb  8 17:54:08 2022


#	Modifying user name:	trannguyen
#	Modification time:	Tue Feb  8 17:54:08 2022

@<TRIPOS>MOLECULE
CHEMBL293410
 8 7 0 0 0
SMALL
GASTEIGER

@<TRIPOS>ATOM
      1 C           0.1988   61.3240   78.7451 C.3     1  UNL1        0.1711
      2 N          -0.0564   61.1389   77.2931 N.4     1  UNL1        0.3125
      3 C           1.1927   61.4022   76.5592 C.3     1  UNL1        0.1711
      4 C          -0.4988   59.7527   77.0705 C.3     1  UNL1        0.1711
      5 C          -1.1371   62.1263   76.9006 C.3     1  UNL1        0.1416
      6 C          -0.6547   63.3104   76.0406 C.3     1  UNL1        0.1989
      7 O          -1.1956   63.1980   74.7459 O.3     1  UNL1       -0.3768
      8 H          -0.6702   62.4998   74.2772 H       1  UNL1        0.2107
@<TRIPOS>UNITY_ATOM_ATTR
2 1
charge 1
@<TRIPOS>BOND
     1     1     2    1
     2     2     3    1
     3     2     4    1
     4     2     5    1
     5     5     6    1
     6     6     7    1
     7     7     8    1
#	Name:			CHEMBL321926
#	Creating user name:	trannguyen
#	Creation time:		Tue Feb  8 17:54:08 2022


#	Modifying user name:	trannguyen
#	Modification time:	Tue Feb  8 17:54:08 2022

@<TRIPOS>MOLECULE
CHEMBL321926
 18 19 0 0 0
SMALL
GASTEIGER

@<TRIPOS>ATOM
      1 C          -9.1934   58.9911   78.2267 C.3     1  UNL1        0.0519
      2 C          -7.9015   58.9572   77.4603 C.ar    1  UNL1        0.0589
      3 N          -7.0701   57.9422   77.8006 N.ar    1  UNL1       -0.2497
      4 C          -5.9048   57.8001   77.1583 C.ar    1  UNL1        0.0842
      5 C          -5.0961   56.7241   77.5088 C.ar    1  UNL1        0.0193
      6 C          -3.8644   56.4894   76.8950 C.ar    1  UNL1        0.0039
      7 C          -3.4249   57.3557   75.9077 C.ar    1  UNL1        0.0298
      8 C          -4.2239   58.4375   75.5503 C.ar    1  UNL1        0.1427
      9 F          -3.7505   59.2725   74.6092 F       1  UNL1       -0.2041
     10 C          -5.4785   58.6869   76.1554 C.ar    1  UNL1        0.0578
     11 C          -6.3318   59.7809   75.8401 C.ar    1  UNL1        0.0446
     12 N          -6.0282   60.6314   74.7450 N.pl3   1  UNL1       -0.3571
     13 C          -7.5943   59.8886   76.4634 C.ar    1  UNL1        0.0335
     14 H          -5.0369   60.6159   74.4981 H       1  UNL1        0.1423
     15 H          -6.3583   61.5882   74.8573 H       1  UNL1        0.1423
     16 C          -8.5585   60.9920   76.0966 C.3     1  UNL1        0.1660
     17 O          -9.0449   60.8758   74.7622 O.3     1  UNL1       -0.3772
     18 H          -8.4637   60.2425   74.2954 H       1  UNL1        0.2109
@<TRIPOS>BOND
     1     1     2    1
     2     2     3   ar
     3     2    13   ar
     4     3     4   ar
     5     4     5   ar
     6     4    10   ar
     7     5     6   ar
     8     6     7   ar
     9     7     8   ar
    10     8     9    1
    11     8    10   ar
    12    10    11   ar
    13    11    12    1
    14    11    13   ar
    15    12    14    1
    16    12    15    1
    17    13    16    1
    18    16    17    1
    19    17    18    1
#	Name:			CHEMBL3221003
#	Creating user name:	trannguyen
#	Creation time:		Tue Feb  8 17:54:08 2022


#	Modifying user name:	trannguyen
#	Modification time:	Tue Feb  8 17:54:08 2022

@<TRIPOS>MOLECULE
CHEMBL3221003
 15 17 0 0 0
SMALL
GASTEIGER

@<TRIPOS>ATOM
      1 CL          1.8597   68.9772   66.7407 Cl      1  UNL1       -0.0825
      2 C           3.4517   69.3576   66.1399 C.ar    1  UNL1        0.0562
      3 C           3.7502   69.0979   64.7922 C.ar    1  UNL1        0.0020
      4 C           5.0529   69.3621   64.3759 C.ar    1  UNL1        0.0558
      5 N           5.9931   69.8942   65.1918 N.ar    1  UNL1       -0.2499
      6 C           5.6864   70.1636   66.4683 C.ar    1  UNL1        0.0817
      7 C           6.6736   70.7144   67.2753 C.ar    1  UNL1        0.0191
      8 C           6.4469   71.0244   68.6174 C.ar    1  UNL1        0.0015
      9 C           5.2023   70.7772   69.1753 C.ar    1  UNL1        0.0001
     10 C           4.1958   70.2248   68.3847 C.ar    1  UNL1        0.0023
     11 C           4.4171   69.9112   67.0171 C.ar    1  UNL1        0.0279
     12 C           5.4997   69.1240   62.9557 C.3     1  UNL1        0.0455
     13 C           4.5863   68.1772   62.1855 C.3     1  UNL1        0.0066
     14 C           3.1370   68.5979   62.3725 C.3     1  UNL1        0.0051
     15 C           2.7403   68.4961   63.8451 C.3     1  UNL1        0.0284
@<TRIPOS>BOND
     1     1     2    1
     2     2     3   ar
     3     2    11   ar
     4     3     4   ar
     5     3    15    1
     6     4     5   ar
     7     4    12    1
     8     5     6   ar
     9     6     7   ar
    10     6    11   ar
    11     7     8   ar
    12     8     9   ar
    13     9    10   ar
    14    10    11   ar
    15    12    13    1
    16    13    14    1
    17    14    15    1
#	Name:			CHEMBL3221004
#	Creating user name:	trannguyen
#	Creation time:		Tue Feb  8 17:54:08 2022


#	Modifying user name:	trannguyen
#	Modification time:	Tue Feb  8 17:54:08 2022

@<TRIPOS>MOLECULE
CHEMBL3221004
 16 18 0 0 0
SMALL
GASTEIGER

@<TRIPOS>ATOM
      1 CL          3.9079   68.3522   61.5557 Cl      1  UNL1       -0.0822
      2 C           3.8487   68.7631   63.2249 C.ar    1  UNL1        0.0592
      3 C           2.6493   68.6725   63.9144 C.ar    1  UNL1        0.0115
      4 C           2.6174   69.0057   65.2674 C.ar    1  UNL1        0.0032
      5 C           3.7881   69.4318   65.9483 C.ar    1  UNL1        0.0280
      6 C           3.8516   69.7802   67.3205 C.ar    1  UNL1        0.0562
      7 CL          2.4022   69.7348   68.2879 Cl      1  UNL1       -0.0825
      8 C           5.0590   70.1717   67.9213 C.ar    1  UNL1        0.0020
      9 C           6.1754   70.2505   67.0924 C.ar    1  UNL1        0.0558
     10 N           6.1424   69.9196   65.7796 N.ar    1  UNL1       -0.2499
     11 C           4.9913   69.5200   65.2243 C.ar    1  UNL1        0.0825
     12 C           5.0035   69.1846   63.8783 C.ar    1  UNL1        0.0305
     13 C           7.5292   70.6606   67.6151 C.3     1  UNL1        0.0455
     14 C           7.4642   71.3968   68.9485 C.3     1  UNL1        0.0066
     15 C           6.5747   70.6302   69.9148 C.3     1  UNL1        0.0051
     16 C           5.1454   70.5593   69.3780 C.3     1  UNL1        0.0284
@<TRIPOS>BOND
     1     1     2    1
     2     2     3   ar
     3     2    12   ar
     4     3     4   ar
     5     4     5   ar
     6     5     6   ar
     7     5    11   ar
     8     6     7    1
     9     6     8   ar
    10     8     9   ar
    11     8    16    1
    12     9    10   ar
    13     9    13    1
    14    10    11   ar
    15    11    12   ar
    16    13    14    1
    17    14    15    1
    18    15    16    1
#	Name:			CHEMBL3221271
#	Creating user name:	trannguyen
#	Creation time:		Tue Feb  8 17:54:08 2022


#	Modifying user name:	trannguyen
#	Modification time:	Tue Feb  8 17:54:08 2022

@<TRIPOS>MOLECULE
CHEMBL3221271
 45 49 0 0 0
SMALL
GASTEIGER

@<TRIPOS>ATOM
      1 C           0.0305   61.8063   77.0012 C.2     1  UNL1        0.2242
      2 O           0.3036   62.3912   75.9477 O.2     1  UNL1       -0.2750
      3 N           0.6465   60.6511   77.4071 N.am    1  UNL1       -0.3042
      4 H           0.2666   60.1545   78.2052 H       1  UNL1        0.1494
      5 C          -1.0675   62.2984   77.9209 C.3     1  UNL1        0.1062
      6 C          -1.5148   63.7078   77.5613 C.3     1  UNL1        0.0993
      7 C          -3.8064   64.7374   77.4176 C.2     1  UNL1        0.2471
      8 O          -3.6248   65.2241   76.2969 O.2     1  UNL1       -0.2701
      9 N          -2.8388   64.0067   78.0904 N.am    1  UNL1       -0.3003
     10 H          -3.1050   63.4980   78.9237 H       1  UNL1        0.1498
     11 C          -5.9618   63.7337   78.3616 C.ar    1  UNL1        0.0527
     12 C          -7.0775   63.9210   79.2056 C.ar    1  UNL1        0.0148
     13 C          -7.4518   65.1779   79.6743 C.ar    1  UNL1        0.0013
     14 C          -6.7066   66.2877   79.3156 C.ar    1  UNL1        0.0002
     15 C          -5.5571   66.1276   78.5436 C.ar    1  UNL1        0.0058
     16 C          -5.1347   64.8491   78.1078 C.ar    1  UNL1        0.0667
     17 N          -5.7230   62.4344   77.8414 N.pl3   1  UNL1       -0.3127
     18 H          -4.8390   62.3464   77.3337 H       1  UNL1        0.1522
     19 C          -8.4790   58.3512   78.8024 C.3     1  UNL1        0.0307
     20 C          -8.0701   59.4991   77.9171 C.ar    1  UNL1       -0.0246
     21 C          -8.8312   59.7557   76.7674 C.ar    1  UNL1       -0.0045
     22 C          -8.5211   60.8291   75.9442 C.ar    1  UNL1        0.0009
     23 C          -7.4502   61.6607   76.2671 C.ar    1  UNL1        0.0143
     24 C          -6.7007   61.4768   77.4456 C.ar    1  UNL1        0.0440
     25 C          -6.9976   60.3647   78.2655 C.ar    1  UNL1       -0.0124
     26 C          -6.3238   60.2041   79.6045 C.3     1  UNL1        0.0320
     27 C           1.6873   60.0219   76.6113 C.3     1  UNL1        0.0911
     28 C           1.2064   58.7342   75.9442 C.3     1  UNL1        0.0424
     29 C           1.3582   57.5057   76.8504 C.3     1  UNL1        0.0888
     30 N           0.0881   57.0845   77.4214 N.pl3   1  UNL1       -0.3328
     31 H           0.1694   56.7972   78.3913 H       1  UNL1        0.1468
     32 C          -1.0827   56.6446   76.7879 C.ar    1  UNL1        0.0431
     33 C          -1.2222   55.2312   76.5944 C.ar    1  UNL1        0.0045
     34 C          -2.3848   54.7511   75.9838 C.ar    1  UNL1        0.0561
     35 N          -3.4448   55.5335   75.7137 N.ar    1  UNL1       -0.2499
     36 C          -3.3767   56.8355   75.9861 C.ar    1  UNL1        0.0820
     37 C          -4.5545   57.5459   75.7892 C.ar    1  UNL1        0.0191
     38 C          -4.6554   58.9107   76.0388 C.ar    1  UNL1        0.0015
     39 C          -3.5259   59.5984   76.4203 C.ar    1  UNL1        0.0001
     40 C          -2.3252   58.9033   76.5724 C.ar    1  UNL1        0.0027
     41 C          -2.2143   57.4842   76.4604 C.ar    1  UNL1        0.0305
     42 C          -2.5833   53.3001   75.6307 C.3     1  UNL1        0.0455
     43 C          -1.2758   52.5269   75.5651 C.3     1  UNL1        0.0066
     44 C          -0.5208   52.7517   76.8635 C.3     1  UNL1        0.0052
     45 C          -0.1582   54.2354   77.0348 C.3     1  UNL1        0.0288
@<TRIPOS>BOND
     1    19    20    1
     2    20    21   ar
     3    20    25   ar
     4    21    22   ar
     5    22    23   ar
     6    23    24   ar
     7    24    17    1
     8    24    25   ar
     9    17    11    1
    10    17    18    1
    11    11    12   ar
    12    11    16   ar
    13    12    13   ar
    14    13    14   ar
    15    14    15   ar
    16    15    16   ar
    17    16     7    1
    18     7     8    2
    19     7     9   am
    20     9     6    1
    21     9    10    1
    22     6     5    1
    23     5     1    1
    24     1     2    2
    25     1     3   am
    26     3    27    1
    27     3     4    1
    28    27    28    1
    29    28    29    1
    30    29    30    1
    31    30    32    1
    32    30    31    1
    33    32    33   ar
    34    32    41   ar
    35    33    34   ar
    36    33    45    1
    37    34    35   ar
    38    34    42    1
    39    35    36   ar
    40    36    37   ar
    41    36    41   ar
    42    37    38   ar
    43    38    39   ar
    44    39    40   ar
    45    40    41   ar
    46    42    43    1
    47    43    44    1
    48    44    45    1
    49    25    26    1
#	Name:			CHEMBL3221272
#	Creating user name:	trannguyen
#	Creation time:		Tue Feb  8 17:54:08 2022


#	Modifying user name:	trannguyen
#	Modification time:	Tue Feb  8 17:54:08 2022

@<TRIPOS>MOLECULE
CHEMBL3221272
 46 50 0 0 0
SMALL
GASTEIGER

@<TRIPOS>ATOM
      1 C          -1.6039   62.2183   77.8550 C.3     1  UNL1        0.0868
      2 C          -0.3484   61.9788   77.0222 C.2     1  UNL1        0.2225
      3 O          -0.0871   62.6217   76.0131 O.2     1  UNL1       -0.2751
      4 N           0.4344   60.9338   77.4779 N.am    1  UNL1       -0.3043
      5 H           0.0996   60.3744   78.2518 H       1  UNL1        0.1494
      6 C           1.6720   60.5299   76.8204 C.3     1  UNL1        0.0911
      7 C           1.4415   59.3528   75.8631 C.3     1  UNL1        0.0424
      8 C           1.6362   58.0089   76.5624 C.3     1  UNL1        0.0888
      9 N           0.5176   57.6872   77.4550 N.pl3   1  UNL1       -0.3328
     10 H           0.2068   58.4693   78.0173 H       1  UNL1        0.1468
     11 C          -0.5271   56.8119   77.0612 C.ar    1  UNL1        0.0431
     12 C          -1.7867   57.2896   76.6030 C.ar    1  UNL1        0.0045
     13 C          -2.7440   56.3431   76.2200 C.ar    1  UNL1        0.0561
     14 N          -2.5127   55.0153   76.1851 N.ar    1  UNL1       -0.2499
     15 C          -1.3362   54.5498   76.5949 C.ar    1  UNL1        0.0820
     16 C          -1.1938   53.1685   76.5562 C.ar    1  UNL1        0.0191
     17 C          -0.0493   52.5274   77.0166 C.ar    1  UNL1        0.0015
     18 C           0.9839   53.2931   77.5278 C.ar    1  UNL1        0.0001
     19 C           0.8719   54.6935   77.5433 C.ar    1  UNL1        0.0027
     20 C          -0.2932   55.3761   77.0704 C.ar    1  UNL1        0.0305
     21 C          -4.1308   56.7320   75.7788 C.3     1  UNL1        0.0455
     22 C          -4.5532   58.1043   76.2778 C.3     1  UNL1        0.0066
     23 C          -3.4884   59.1099   75.8886 C.3     1  UNL1        0.0052
     24 C          -2.1631   58.7555   76.5565 C.3     1  UNL1        0.0288
     25 C          -1.9558   63.7085   77.9648 C.3     1  UNL1        0.0308
     26 C          -3.3496   63.9316   78.5580 C.3     1  UNL1        0.0902
     27 C          -5.0472   62.1454   78.9843 C.2     1  UNL1        0.2471
     28 O          -4.9966   62.2471   80.2165 O.2     1  UNL1       -0.2701
     29 N          -4.3090   62.9395   78.1134 N.am    1  UNL1       -0.3008
     30 H          -4.5279   62.9210   77.1271 H       1  UNL1        0.1497
     31 C          -6.2350   59.8658   78.9056 C.ar    1  UNL1        0.0527
     32 C          -7.3738   59.2139   78.3989 C.ar    1  UNL1        0.0148
     33 C          -8.0585   59.6745   77.2714 C.ar    1  UNL1        0.0013
     34 C          -7.6145   60.8058   76.6086 C.ar    1  UNL1        0.0002
     35 C          -6.5673   61.5382   77.1503 C.ar    1  UNL1        0.0058
     36 C          -5.9479   61.1352   78.3493 C.ar    1  UNL1        0.0667
     37 N          -5.5420   59.2866   80.0087 N.pl3   1  UNL1       -0.3127
     38 H          -5.5809   59.9207   80.8158 H       1  UNL1        0.1522
     39 C          -2.7911   55.0484   79.8656 C.3     1  UNL1        0.0307
     40 C          -2.9380   56.5434   79.9949 C.ar    1  UNL1       -0.0246
     41 C          -1.7779   57.2879   80.2519 C.ar    1  UNL1       -0.0045
     42 C          -1.8375   58.6706   80.3577 C.ar    1  UNL1        0.0009
     43 C          -3.0620   59.3312   80.2284 C.ar    1  UNL1        0.0143
     44 C          -4.2618   58.6248   80.0043 C.ar    1  UNL1        0.0440
     45 C          -4.1927   57.2080   79.8837 C.ar    1  UNL1       -0.0124
     46 C          -5.4585   56.4104   79.6737 C.3     1  UNL1        0.0320
@<TRIPOS>BOND
     1    39    40    1
     2    40    41   ar
     3    40    45   ar
     4    41    42   ar
     5    42    43   ar
     6    43    44   ar
     7    44    37    1
     8    44    45   ar
     9    37    31    1
    10    37    38    1
    11    31    32   ar
    12    31    36   ar
    13    32    33   ar
    14    33    34   ar
    15    34    35   ar
    16    35    36   ar
    17    36    27    1
    18    27    28    2
    19    27    29   am
    20    29    26    1
    21    29    30    1
    22    26    25    1
    23    25     1    1
    24     1     2    1
    25     2     3    2
    26     2     4   am
    27     4     6    1
    28     4     5    1
    29     6     7    1
    30     7     8    1
    31     8     9    1
    32     9    11    1
    33     9    10    1
    34    11    12   ar
    35    11    20   ar
    36    12    13   ar
    37    12    24    1
    38    13    14   ar
    39    13    21    1
    40    14    15   ar
    41    15    16   ar
    42    15    20   ar
    43    16    17   ar
    44    17    18   ar
    45    18    19   ar
    46    19    20   ar
    47    21    22    1
    48    22    23    1
    49    23    24    1
    50    45    46    1
#	Name:			CHEMBL3221277
#	Creating user name:	trannguyen
#	Creation time:		Tue Feb  8 17:54:08 2022


#	Modifying user name:	trannguyen
#	Modification time:	Tue Feb  8 17:54:08 2022

@<TRIPOS>MOLECULE
CHEMBL3221277
 49 53 0 0 0
SMALL
GASTEIGER

@<TRIPOS>ATOM
      1 C           3.4248   61.6834   67.6480 C.3     1  UNL1        0.0850
      2 C           3.7445   63.0731   67.1241 C.2     1  UNL1        0.2225
      3 O           4.1783   63.9733   67.8514 O.2     1  UNL1       -0.2751
      4 N           3.4946   63.2478   65.7879 N.am    1  UNL1       -0.3043
      5 H           3.1464   62.4689   65.2389 H       1  UNL1        0.1494
      6 C           3.7303   64.5021   65.1048 C.3     1  UNL1        0.0894
      7 C           2.5113   65.4107   65.1538 C.3     1  UNL1        0.0230
      8 C           2.5209   66.3928   66.3224 C.3     1  UNL1        0.0229
      9 C           1.4017   67.4366   66.3711 C.3     1  UNL1        0.0871
     10 N           1.8832   68.8075   66.2140 N.pl3   1  UNL1       -0.3328
     11 H           1.1863   69.4553   65.8511 H       1  UNL1        0.1468
     12 C           3.1729   69.1316   65.7257 C.ar    1  UNL1        0.0431
     13 C           3.5856   68.9800   64.3789 C.ar    1  UNL1        0.0045
     14 C           4.9126   69.2973   64.0468 C.ar    1  UNL1        0.0561
     15 N           5.7989   69.7995   64.9314 N.ar    1  UNL1       -0.2499
     16 C           5.4016   70.0264   66.1829 C.ar    1  UNL1        0.0820
     17 C           6.3432   70.5692   67.0470 C.ar    1  UNL1        0.0191
     18 C           6.0470   70.8565   68.3772 C.ar    1  UNL1        0.0015
     19 C           4.7695   70.6123   68.8521 C.ar    1  UNL1        0.0001
     20 C           3.8087   70.0660   67.9953 C.ar    1  UNL1        0.0027
     21 C           4.0984   69.7404   66.6434 C.ar    1  UNL1        0.0305
     22 C           5.4521   69.1876   62.6407 C.3     1  UNL1        0.0455
     23 C           4.5729   68.4001   61.6800 C.3     1  UNL1        0.0066
     24 C           3.1254   68.8042   61.8627 C.3     1  UNL1        0.0052
     25 C           2.6712   68.4981   63.2841 C.3     1  UNL1        0.0288
     26 C           2.2768   61.6595   68.6677 C.3     1  UNL1        0.0096
     27 C           2.2853   60.3499   69.4672 C.3     1  UNL1        0.0023
     28 C           2.6724   60.4799   70.9398 C.3     1  UNL1        0.0213
     29 C           2.1453   59.2988   71.7781 C.3     1  UNL1        0.0897
     30 C           2.2844   58.9727   74.2649 C.2     1  UNL1        0.2471
     31 O           3.1593   58.0846   74.1686 O.2     1  UNL1       -0.2701
     32 N           1.7944   59.6436   73.1597 N.am    1  UNL1       -0.3008
     33 H           0.9246   60.1821   73.2636 H       1  UNL1        0.1497
     34 C           0.9211   58.3636   76.4439 C.ar    1  UNL1        0.0527
     35 C           0.4197   58.8686   77.6705 C.ar    1  UNL1        0.0148
     36 C           0.6111   60.1972   78.0787 C.ar    1  UNL1        0.0013
     37 C           1.3268   61.0713   77.2753 C.ar    1  UNL1        0.0002
     38 C           1.8378   60.6145   76.0611 C.ar    1  UNL1        0.0058
     39 C           1.6691   59.2727   75.6268 C.ar    1  UNL1        0.0667
     40 N           0.7914   56.9760   76.1514 N.pl3   1  UNL1       -0.3127
     41 H           1.4056   56.7034   75.3852 H       1  UNL1        0.1522
     42 C          -1.0308   52.3902   77.0353 C.3     1  UNL1        0.0307
     43 C          -1.1935   53.8006   76.5243 C.ar    1  UNL1       -0.0246
     44 C          -2.3708   54.1339   75.8525 C.ar    1  UNL1       -0.0045
     45 C          -2.5350   55.4122   75.3278 C.ar    1  UNL1        0.0009
     46 C          -1.5099   56.3672   75.4286 C.ar    1  UNL1        0.0143
     47 C          -0.3287   56.0860   76.1259 C.ar    1  UNL1        0.0440
     48 C          -0.2061   54.8023   76.7295 C.ar    1  UNL1       -0.0124
     49 C           0.9628   54.4882   77.6286 C.3     1  UNL1        0.0320
@<TRIPOS>BOND
     1    42    43    1
     2    43    44   ar
     3    43    48   ar
     4    44    45   ar
     5    45    46   ar
     6    46    47   ar
     7    47    40    1
     8    47    48   ar
     9    40    34    1
    10    40    41    1
    11    34    35   ar
    12    34    39   ar
    13    35    36   ar
    14    36    37   ar
    15    37    38   ar
    16    38    39   ar
    17    39    30    1
    18    30    31    2
    19    30    32   am
    20    32    29    1
    21    32    33    1
    22    29    28    1
    23    28    27    1
    24    27    26    1
    25    26     1    1
    26     1     2    1
    27     2     3    2
    28     2     4   am
    29     4     6    1
    30     4     5    1
    31     6     7    1
    32     7     8    1
    33     8     9    1
    34     9    10    1
    35    10    12    1
    36    10    11    1
    37    12    13   ar
    38    12    21   ar
    39    13    14   ar
    40    13    25    1
    41    14    15   ar
    42    14    22    1
    43    15    16   ar
    44    16    17   ar
    45    16    21   ar
    46    17    18   ar
    47    18    19   ar
    48    19    20   ar
    49    20    21   ar
    50    22    23    1
    51    23    24    1
    52    24    25    1
    53    48    49    1
#	Name:			CHEMBL3221281
#	Creating user name:	trannguyen
#	Creation time:		Tue Feb  8 17:54:08 2022


#	Modifying user name:	trannguyen
#	Modification time:	Tue Feb  8 17:54:08 2022

@<TRIPOS>MOLECULE
CHEMBL3221281
 51 55 0 0 0
SMALL
GASTEIGER

@<TRIPOS>ATOM
      1 C           0.1526   61.8799   77.1937 C.2     1  UNL1        0.2225
      2 O           0.1105   61.2057   78.2387 O.2     1  UNL1       -0.2751
      3 N           1.0369   61.6269   76.1663 N.am    1  UNL1       -0.3043
      4 H           1.1664   62.3642   75.4828 H       1  UNL1        0.1494
      5 C          -0.8655   62.9761   76.8872 C.3     1  UNL1        0.0850
      6 C          -1.9001   63.2072   77.9984 C.3     1  UNL1        0.0096
      7 C          -1.3281   63.8974   79.2434 C.3     1  UNL1        0.0023
      8 C          -2.3116   64.8177   79.9931 C.3     1  UNL1        0.0213
      9 C          -3.4339   65.4737   79.1682 C.3     1  UNL1        0.0897
     10 C          -5.5128   64.4031   78.3075 C.2     1  UNL1        0.2471
     11 O          -5.0641   64.3351   77.1572 O.2     1  UNL1       -0.2701
     12 N          -4.7748   64.9234   79.3552 N.am    1  UNL1       -0.3008
     13 H          -5.2834   65.2134   80.1836 H       1  UNL1        0.1497
     14 C          -7.4087   62.7910   79.0967 C.ar    1  UNL1        0.0527
     15 C          -8.7982   62.6863   79.3583 C.ar    1  UNL1        0.0148
     16 C          -9.7113   63.6741   78.9916 C.ar    1  UNL1        0.0013
     17 C          -9.2549   64.8217   78.3686 C.ar    1  UNL1        0.0002
     18 C          -7.8847   64.9979   78.1792 C.ar    1  UNL1        0.0058
     19 C          -6.9400   64.0143   78.5630 C.ar    1  UNL1        0.0667
     20 N          -6.6127   61.6341   79.3180 N.pl3   1  UNL1       -0.3127
     21 H          -5.8233   61.7664   79.9317 H       1  UNL1        0.1522
     22 C          -5.7985   56.7067   78.5414 C.3     1  UNL1        0.0307
     23 C          -6.1241   58.1073   78.0874 C.ar    1  UNL1       -0.0246
     24 C          -6.6417   58.2351   76.7876 C.ar    1  UNL1       -0.0045
     25 C          -6.9530   59.4847   76.2743 C.ar    1  UNL1        0.0009
     26 C          -6.8575   60.6058   77.0949 C.ar    1  UNL1        0.0143
     27 C          -6.4611   60.5109   78.4442 C.ar    1  UNL1        0.0440
     28 C          -5.9918   59.2592   78.9146 C.ar    1  UNL1       -0.0124
     29 C          -5.3853   59.1188   80.2853 C.3     1  UNL1        0.0320
     30 C           2.0561   60.5786   76.1834 C.3     1  UNL1        0.0894
     31 C           1.6251   59.2349   75.5591 C.3     1  UNL1        0.0212
     32 C           0.9473   58.3100   76.5797 C.3     1  UNL1        0.0018
     33 C           1.7458   57.9548   77.8469 C.3     1  UNL1        0.0018
     34 C           0.9849   57.8646   79.1691 C.3     1  UNL1        0.0212
     35 C           0.4420   56.4814   79.5434 C.3     1  UNL1        0.0870
     36 N          -1.0168   56.3544   79.4998 N.pl3   1  UNL1       -0.3328
     37 H          -1.5018   56.7765   80.2823 H       1  UNL1        0.1468
     38 C          -1.7877   56.2249   78.3152 C.ar    1  UNL1        0.0431
     39 C          -1.9713   54.9118   77.7657 C.ar    1  UNL1        0.0045
     40 C          -2.5388   54.7935   76.4868 C.ar    1  UNL1        0.0561
     41 N          -2.8807   55.8483   75.7293 N.ar    1  UNL1       -0.2499
     42 C          -2.7736   57.0683   76.2374 C.ar    1  UNL1        0.0820
     43 C          -3.2092   58.0770   75.3900 C.ar    1  UNL1        0.0191
     44 C          -3.2913   59.4014   75.7957 C.ar    1  UNL1        0.0015
     45 C          -2.9279   59.7187   77.0858 C.ar    1  UNL1        0.0001
     46 C          -2.4263   58.7184   77.9262 C.ar    1  UNL1        0.0027
     47 C          -2.2949   57.3482   77.5394 C.ar    1  UNL1        0.0305
     48 C          -2.9287   53.4778   75.8656 C.3     1  UNL1        0.0455
     49 C          -2.2185   52.2752   76.4551 C.3     1  UNL1        0.0066
     50 C          -2.2541   52.3666   77.9709 C.3     1  UNL1        0.0052
     51 C          -1.5305   53.6337   78.4584 C.3     1  UNL1        0.0288
@<TRIPOS>BOND
     1    22    23    1
     2    23    24   ar
     3    23    28   ar
     4    24    25   ar
     5    25    26   ar
     6    26    27   ar
     7    27    20    1
     8    27    28   ar
     9    20    14    1
    10    20    21    1
    11    14    15   ar
    12    14    19   ar
    13    15    16   ar
    14    16    17   ar
    15    17    18   ar
    16    18    19   ar
    17    19    10    1
    18    10    11    2
    19    10    12   am
    20    12     9    1
    21    12    13    1
    22     9     8    1
    23     8     7    1
    24     7     6    1
    25     6     5    1
    26     5     1    1
    27     1     2    2
    28     1     3   am
    29     3    30    1
    30     3     4    1
    31    30    31    1
    32    31    32    1
    33    32    33    1
    34    33    34    1
    35    34    35    1
    36    35    36    1
    37    36    38    1
    38    36    37    1
    39    38    39   ar
    40    38    47   ar
    41    39    40   ar
    42    39    51    1
    43    40    41   ar
    44    40    48    1
    45    41    42   ar
    46    42    43   ar
    47    42    47   ar
    48    43    44   ar
    49    44    45   ar
    50    45    46   ar
    51    46    47   ar
    52    48    49    1
    53    49    50    1
    54    50    51    1
    55    28    29    1
#	Name:			CHEMBL322791
#	Creating user name:	trannguyen
#	Creation time:		Tue Feb  8 17:54:08 2022


#	Modifying user name:	trannguyen
#	Modification time:	Tue Feb  8 17:54:08 2022

@<TRIPOS>MOLECULE
CHEMBL322791
 28 30 0 0 0
SMALL
GASTEIGER

@<TRIPOS>ATOM
      1 C           1.4109   69.0703   66.8837 C.3     1  UNL1        0.0518
      2 C           2.8591   69.4708   66.9495 C.ar    1  UNL1        0.0578
      3 N           3.2990   69.7929   68.1901 N.ar    1  UNL1       -0.2498
      4 C           4.5767   70.1483   68.3599 C.ar    1  UNL1        0.0842
      5 C           4.9890   70.4832   69.6448 C.ar    1  UNL1        0.0193
      6 C           6.3037   70.8555   69.9295 C.ar    1  UNL1        0.0039
      7 C           7.2345   70.8887   68.9046 C.ar    1  UNL1        0.0298
      8 C           6.8319   70.5629   67.6130 C.ar    1  UNL1        0.1427
      9 F           7.7720   70.5724   66.6518 F       1  UNL1       -0.2041
     10 C           5.5018   70.1942   67.3018 C.ar    1  UNL1        0.0577
     11 C           5.0431   69.8319   66.0032 C.ar    1  UNL1        0.0435
     12 N           5.8805   70.0373   64.8777 N.pl3   1  UNL1       -0.3571
     13 C           3.6921   69.4674   65.8211 C.ar    1  UNL1        0.0203
     14 H           6.8671   70.1140   65.1295 H       1  UNL1        0.1423
     15 H           5.7555   69.3806   64.1162 H       1  UNL1        0.1423
     16 C           3.1547   69.0609   64.4673 C.3     1  UNL1        0.1007
     17 N           2.7377   67.6519   64.4334 N.3     1  UNL1       -0.2576
     18 H           1.8176   67.6188   63.9895 H       1  UNL1        0.1269
     19 C           3.6910   66.8048   63.6741 C.3     1  UNL1        0.2694
     20 C           4.9840   66.6421   64.4849 C.3     1  UNL1        0.0766
     21 C           5.5382   65.3239   63.9850 C.3     1  UNL1        0.1150
     22 C           4.2847   64.5923   63.6171 C.2     1  UNL1        0.3183
     23 O           4.2114   63.4028   63.3381 O.2     1  UNL1       -0.2501
     24 O           3.2150   65.4405   63.6382 O.3     1  UNL1       -0.4325
     25 C           4.0390   67.2991   62.1947 C.3     1  UNL1        0.4446
     26 F           4.1484   66.2832   61.3080 F       1  UNL1       -0.1654
     27 F           3.0987   68.1405   61.7033 F       1  UNL1       -0.1654
     28 F           5.2169   67.9690   62.1692 F       1  UNL1       -0.1654
@<TRIPOS>BOND
     1     1     2    1
     2     2     3   ar
     3     2    13   ar
     4     3     4   ar
     5     4     5   ar
     6     4    10   ar
     7     5     6   ar
     8     6     7   ar
     9     7     8   ar
    10     8     9    1
    11     8    10   ar
    12    10    11   ar
    13    11    12    1
    14    11    13   ar
    15    12    14    1
    16    12    15    1
    17    13    16    1
    18    16    17    1
    19    17    19    1
    20    17    18    1
    21    19    25    1
    22    19    20    1
    23    19    24    1
    24    25    26    1
    25    25    27    1
    26    25    28    1
    27    20    21    1
    28    21    22    1
    29    22    23    2
    30    22    24    1
#	Name:			CHEMBL323772
#	Creating user name:	trannguyen
#	Creation time:		Tue Feb  8 17:54:08 2022


#	Modifying user name:	trannguyen
#	Modification time:	Tue Feb  8 17:54:08 2022

@<TRIPOS>MOLECULE
CHEMBL323772
 24 26 0 0 0
SMALL
GASTEIGER

@<TRIPOS>ATOM
      1 C          -2.1958   54.1747   78.2789 C.3     1  UNL1        0.0519
      2 C          -2.6077   55.3379   77.4188 C.ar    1  UNL1        0.0589
      3 N          -3.8112   55.8704   77.7416 N.ar    1  UNL1       -0.2497
      4 C          -4.2503   56.9468   77.0741 C.ar    1  UNL1        0.0842
      5 C          -5.4760   57.4856   77.4525 C.ar    1  UNL1        0.0193
      6 C          -6.0126   58.6141   76.8297 C.ar    1  UNL1        0.0039
      7 C          -5.3130   59.2169   75.7991 C.ar    1  UNL1        0.0298
      8 C          -4.0880   58.6842   75.4086 C.ar    1  UNL1        0.1427
      9 F          -3.4565   59.2786   74.3838 F       1  UNL1       -0.2041
     10 C          -3.5260   57.5460   76.0359 C.ar    1  UNL1        0.0578
     11 C          -2.2844   56.9561   75.6713 C.ar    1  UNL1        0.0446
     12 N          -1.4388   57.6151   74.7451 N.pl3   1  UNL1       -0.3571
     13 C          -1.8000   55.8381   76.3902 C.ar    1  UNL1        0.0339
     14 H          -1.9432   58.2240   74.1017 H       1  UNL1        0.1423
     15 H          -0.8494   56.9423   74.2427 H       1  UNL1        0.1423
     16 C          -0.4372   55.2324   76.1284 C.3     1  UNL1        0.1714
     17 O           0.5858   56.2284   76.1869 O.3     1  UNL1       -0.3442
     18 C           0.9499   56.5445   77.5253 C.3     1  UNL1        0.1691
     19 C           1.4409   57.9675   77.5488 C.ar    1  UNL1        0.0073
     20 C           1.2901   58.7942   76.4277 C.ar    1  UNL1       -0.0019
     21 C           1.7325   60.1177   76.4594 C.ar    1  UNL1       -0.0002
     22 C           2.3314   60.6275   77.6100 C.ar    1  UNL1       -0.0000
     23 C           2.4940   59.8133   78.7288 C.ar    1  UNL1       -0.0002
     24 C           2.0515   58.4901   78.6991 C.ar    1  UNL1       -0.0019
@<TRIPOS>BOND
     1     1     2    1
     2     2     3   ar
     3     2    13   ar
     4     3     4   ar
     5     4     5   ar
     6     4    10   ar
     7     5     6   ar
     8     6     7   ar
     9     7     8   ar
    10     8     9    1
    11     8    10   ar
    12    10    11   ar
    13    11    12    1
    14    11    13   ar
    15    12    14    1
    16    12    15    1
    17    13    16    1
    18    16    17    1
    19    17    18    1
    20    18    19    1
    21    19    20   ar
    22    19    24   ar
    23    20    21   ar
    24    21    22   ar
    25    22    23   ar
    26    23    24   ar
#	Name:			CHEMBL325142
#	Creating user name:	trannguyen
#	Creation time:		Tue Feb  8 17:54:08 2022


#	Modifying user name:	trannguyen
#	Modification time:	Tue Feb  8 17:54:08 2022

@<TRIPOS>MOLECULE
CHEMBL325142
 19 20 0 0 0
SMALL
GASTEIGER

@<TRIPOS>ATOM
      1 C           5.3900   69.1556   62.9239 C.3     1  UNL1        0.0518
      2 C           4.9554   69.3464   64.3503 C.ar    1  UNL1        0.0578
      3 N           5.9131   69.8418   65.1724 N.ar    1  UNL1       -0.2498
      4 C           5.6076   70.1094   66.4459 C.ar    1  UNL1        0.0842
      5 C           6.6036   70.6580   67.2468 C.ar    1  UNL1        0.0193
      6 C           6.3854   70.9833   68.5863 C.ar    1  UNL1        0.0039
      7 C           5.1393   70.7503   69.1433 C.ar    1  UNL1        0.0298
      8 C           4.1354   70.1985   68.3524 C.ar    1  UNL1        0.1427
      9 F           2.9497   69.9592   68.9394 F       1  UNL1       -0.2041
     10 C           4.3345   69.8669   66.9906 C.ar    1  UNL1        0.0577
     11 C           3.3489   69.2868   66.1390 C.ar    1  UNL1        0.0435
     12 N           2.0121   69.1607   66.5975 N.pl3   1  UNL1       -0.3571
     13 C           3.6565   69.0455   64.7814 C.ar    1  UNL1        0.0200
     14 H           1.9413   69.1781   67.6155 H       1  UNL1        0.1423
     15 H           1.5005   68.3779   66.2092 H       1  UNL1        0.1423
     16 C           2.6215   68.5405   63.8052 C.3     1  UNL1        0.0946
     17 N           2.1412   67.2141   64.1733 N.3     1  UNL1       -0.3174
     18 H           2.9524   66.5987   64.2649 H       1  UNL1        0.1192
     19 H           1.5804   66.8337   63.4143 H       1  UNL1        0.1192
@<TRIPOS>BOND
     1     1     2    1
     2     2     3   ar
     3     2    13   ar
     4     3     4   ar
     5     4     5   ar
     6     4    10   ar
     7     5     6   ar
     8     6     7   ar
     9     7     8   ar
    10     8     9    1
    11     8    10   ar
    12    10    11   ar
    13    11    12    1
    14    11    13   ar
    15    12    14    1
    16    12    15    1
    17    13    16    1
    18    16    17    1
    19    17    18    1
    20    17    19    1
#	Name:			CHEMBL325766
#	Creating user name:	trannguyen
#	Creation time:		Tue Feb  8 17:54:08 2022


#	Modifying user name:	trannguyen
#	Modification time:	Tue Feb  8 17:54:08 2022

@<TRIPOS>MOLECULE
CHEMBL325766
 31 33 0 0 0
SMALL
GASTEIGER

@<TRIPOS>ATOM
      1 C           2.5978   69.2735   66.3589 C.3     1  UNL1        0.0865
      2 C           4.9267   69.5667   64.4697 C.3     1  UNL1        0.0518
      3 C           5.0388   69.8351   65.9467 C.ar    1  UNL1        0.0574
      4 N           6.2836   70.2020   66.3332 N.ar    1  UNL1       -0.2498
      5 C           6.5203   70.4606   67.6252 C.ar    1  UNL1        0.0842
      6 C           7.8194   70.8008   67.9832 C.ar    1  UNL1        0.0193
      7 C           8.1819   71.0542   69.3052 C.ar    1  UNL1        0.0039
      8 C           7.2151   70.9836   70.2934 C.ar    1  UNL1        0.0298
      9 C           5.9067   70.6647   69.9423 C.ar    1  UNL1        0.1427
     10 F           5.0028   70.5784   70.9364 F       1  UNL1       -0.2041
     11 C           5.5217   70.3861   68.6140 C.ar    1  UNL1        0.0577
     12 C           4.2168   69.9894   68.2014 C.ar    1  UNL1        0.0431
     13 N           3.1368   70.0553   69.1072 N.pl3   1  UNL1       -0.3571
     14 C           3.9702   69.7084   66.8425 C.ar    1  UNL1        0.0153
     15 H           3.4368   70.0826   70.0882 H       1  UNL1        0.1423
     16 H           2.4304   69.3385   68.9595 H       1  UNL1        0.1423
     17 S           1.9458   67.7800   67.1905 S.3     1  UNL1       -0.1306
     18 C           1.3123   66.8876   65.7381 C.3     1  UNL1        0.0841
     19 C           2.4101   66.3391   64.8614 C.ar    1  UNL1       -0.0116
     20 C           2.9953   65.0937   65.1245 C.ar    1  UNL1       -0.0034
     21 C           4.0396   64.6199   64.3302 C.ar    1  UNL1       -0.0005
     22 C           4.5099   65.3823   63.2602 C.ar    1  UNL1       -0.0017
     23 C           3.9330   66.6256   62.9670 C.ar    1  UNL1        0.0124
     24 C           2.8903   67.0961   63.7831 C.ar    1  UNL1       -0.0051
     25 C           4.4064   67.4390   61.7813 C.3     1  UNL1        0.2288
     26 O           4.4852   66.5297   60.6591 O.3     1  UNL1       -0.3730
     27 H           3.6611   66.6298   60.1477 H       1  UNL1        0.2111
     28 C           3.5649   68.7053   61.4831 C.3     1  UNL1        0.4258
     29 F           2.7501   69.0686   62.4969 F       1  UNL1       -0.1672
     30 F           4.3548   69.7658   61.1961 F       1  UNL1       -0.1672
     31 F           2.7695   68.4904   60.4013 F       1  UNL1       -0.1672
@<TRIPOS>BOND
     1     2     3    1
     2     3     4   ar
     3     3    14   ar
     4     4     5   ar
     5     5     6   ar
     6     5    11   ar
     7     6     7   ar
     8     7     8   ar
     9     8     9   ar
    10     9    10    1
    11     9    11   ar
    12    11    12   ar
    13    12    13    1
    14    12    14   ar
    15    13    15    1
    16    13    16    1
    17    14     1    1
    18     1    17    1
    19    17    18    1
    20    18    19    1
    21    19    20   ar
    22    19    24   ar
    23    20    21   ar
    24    21    22   ar
    25    22    23   ar
    26    23    25    1
    27    23    24   ar
    28    25    26    1
    29    25    28    1
    30    26    27    1
    31    28    29    1
    32    28    30    1
    33    28    31    1
#	Name:			CHEMBL3288074
#	Creating user name:	trannguyen
#	Creation time:		Tue Feb  8 17:54:08 2022


#	Modifying user name:	trannguyen
#	Modification time:	Tue Feb  8 17:54:08 2022

@<TRIPOS>MOLECULE
CHEMBL3288074
 40 44 0 0 0
SMALL
GASTEIGER

@<TRIPOS>ATOM
      1 C           0.2131   56.1746   77.0577 C.3     1  UNL1        0.0184
      2 C           0.9321   56.3286   78.3962 C.3     1  UNL1        0.0041
      3 C           1.0901   57.8305   78.5871 C.3     1  UNL1        0.0027
      4 C           0.0509   58.5349   77.6449 C.3     1  UNL1        0.0276
      5 C           0.8911   59.2713   76.5647 C.3     1  UNL1        0.0025
      6 C          -0.8616   59.5156   78.4530 C.3     1  UNL1        0.1431
      7 C          -1.6604   58.6328   79.4818 C.3     1  UNL1        0.0320
      8 C          -2.7278   57.5777   78.8998 C.3     1  UNL1        0.0024
      9 C          -2.5584   56.2680   79.6990 C.3     1  UNL1        0.0001
     10 C          -2.3292   57.3971   77.3958 C.3     1  UNL1        0.0005
     11 C          -3.3011   56.4773   76.6586 C.3     1  UNL1        0.0000
     12 C          -4.6387   57.2042   76.4686 C.3     1  UNL1        0.0000
     13 C          -5.2932   57.6933   77.7846 C.3     1  UNL1        0.0000
     14 C          -6.3938   58.8338   77.6365 C.3     1  UNL1        0.0002
     15 C          -5.6586   60.0758   77.0317 C.3     1  UNL1        0.0000
     16 C          -7.5723   58.6212   76.6377 C.3     1  UNL1        0.0026
     17 C          -8.5615   59.8385   76.6161 C.3     1  UNL1        0.0320
     18 C          -8.5213   60.8197   77.8275 C.3     1  UNL1        0.1431
     19 C          -8.2912   60.0193   79.1726 C.3     1  UNL1        0.0273
     20 C          -9.6508   59.3269   79.4871 C.3     1  UNL1        0.0025
     21 C          -8.0319   60.9609   80.3729 C.3     1  UNL1        0.0025
     22 C          -7.1882   58.8680   79.0402 C.3     1  UNL1        0.0023
     23 C          -6.4691   58.4114   80.3815 C.3     1  UNL1        0.0001
     24 C          -5.1736   57.5423   80.2413 C.3     1  UNL1        0.0000
     25 C          -4.3197   58.0465   79.0348 C.3     1  UNL1        0.0001
     26 C          -4.2290   59.5341   79.3688 C.3     1  UNL1        0.0000
     27 C          -0.7970   57.3606   76.9750 C.3     1  UNL1        0.0061
     28 C          -0.9303   54.2987   75.7739 C.2     1  UNL1       -0.0091
     29 C          -0.0445   54.7337   76.6776 C.2     1  UNL1       -0.0442
     30 C           0.7536   53.7183   77.4685 C.3     1  UNL1        0.0263
     31 O          -1.6742   60.2856   77.5558 O.3     1  UNL1       -0.2438
     32 S          -1.5966   61.9140   77.4164 S.3     1  UNL1       -0.0002
     33 O          -2.8603   62.4586   77.8922 O.2     1  UNL1       -0.3452
     34 O          -0.5357   62.3345   78.3396 O.2     1  UNL1       -0.3452
     35 O          -1.2959   62.1826   76.0164 O.3     1  UNL1       -0.2682
     36 O          -7.5742   61.8814   77.6796 O.3     1  UNL1       -0.2438
     37 S          -7.9451   63.3143   76.9890 S.3     1  UNL1       -0.0002
     38 O          -9.2732   63.6764   77.5317 O.2     1  UNL1       -0.3452
     39 O          -6.8494   64.1719   77.3829 O.2     1  UNL1       -0.3452
     40 O          -7.8676   63.1012   75.5566 O.3     1  UNL1       -0.2682
@<TRIPOS>BOND
     1    28    29    2
     2    29    30    1
     3     1     2    1
     4     1    27    1
     5     1    29    1
     6     2     3    1
     7     3     4    1
     8     4     6    1
     9     4    27    1
    10     4     5    1
    11     6     7    1
    12     6    31    1
    13    31    32    1
    14    32    33    2
    15    32    34    2
    16    32    35    1
    17     7     8    1
    18     8    10    1
    19     8    25    1
    20     8     9    1
    21    10    11    1
    22    10    27    1
    23    11    12    1
    24    12    13    1
    25    13    14    1
    26    13    25    1
    27    14    16    1
    28    14    22    1
    29    14    15    1
    30    16    17    1
    31    17    18    1
    32    18    19    1
    33    18    36    1
    34    36    37    1
    35    37    38    2
    36    37    39    2
    37    37    40    1
    38    19    22    1
    39    19    20    1
    40    19    21    1
    41    22    23    1
    42    23    24    1
    43    24    25    1
    44    25    26    1
#	Name:			CHEMBL3288075
#	Creating user name:	trannguyen
#	Creation time:		Tue Feb  8 17:54:08 2022


#	Modifying user name:	trannguyen
#	Modification time:	Tue Feb  8 17:54:08 2022

@<TRIPOS>MOLECULE
CHEMBL3288075
 35 39 0 0 0
SMALL
GASTEIGER

@<TRIPOS>ATOM
      1 C          -6.6766   62.4527   77.7982 C.3     1  UNL1        0.0257
      2 C          -8.1854   62.7915   77.6619 C.3     1  UNL1        0.0045
      3 C          -8.9305   61.4524   77.5330 C.3     1  UNL1        0.0027
      4 C          -7.8623   60.4682   77.0364 C.3     1  UNL1        0.0251
      5 C          -7.6836   60.6850   75.5089 C.3     1  UNL1        0.0024
      6 C          -8.1538   58.9905   77.3559 C.3     1  UNL1        0.1104
      7 O          -9.2934   58.5212   76.6410 O.3     1  UNL1       -0.3845
      8 C          -6.9323   58.0968   77.0427 C.3     1  UNL1        0.0292
      9 C          -5.5784   58.5693   77.6899 C.3     1  UNL1        0.0023
     10 C          -5.7265   58.2295   79.2137 C.3     1  UNL1        0.0001
     11 C          -5.3840   60.1298   77.5013 C.3     1  UNL1        0.0005
     12 C          -4.1053   60.6187   78.1919 C.3     1  UNL1        0.0000
     13 C          -2.8532   59.8735   77.7174 C.3     1  UNL1        0.0000
     14 C          -2.9761   58.3317   77.7779 C.3     1  UNL1        0.0000
     15 C          -1.6287   57.5444   77.4394 C.3     1  UNL1        0.0002
     16 C          -1.1225   57.8516   76.0092 C.3     1  UNL1        0.0000
     17 C          -0.5147   57.9947   78.4355 C.3     1  UNL1        0.0025
     18 C           0.7366   57.1185   78.4213 C.3     1  UNL1        0.0292
     19 C           0.4211   55.6442   78.6492 C.3     1  UNL1        0.1104
     20 O           1.6347   54.8977   78.5617 O.3     1  UNL1       -0.3845
     21 C          -0.6433   55.0712   77.6689 C.3     1  UNL1        0.0247
     22 C          -1.0277   53.6576   78.1889 C.3     1  UNL1        0.0024
     23 C          -0.0531   54.8555   76.2599 C.3     1  UNL1        0.0024
     24 C          -1.9048   56.0135   77.6980 C.3     1  UNL1        0.0022
     25 C          -3.1053   55.5087   76.8728 C.3     1  UNL1        0.0001
     26 C          -4.3861   56.2800   77.2134 C.3     1  UNL1        0.0000
     27 C          -4.2847   57.8206   77.0453 C.3     1  UNL1        0.0001
     28 C          -4.2158   58.1051   75.5131 C.3     1  UNL1        0.0000
     29 C          -6.6556   60.9084   77.9040 C.3     1  UNL1        0.0064
     30 H          -9.0491   58.4124   75.7067 H       1  UNL1        0.2103
     31 H           2.2566   55.2666   79.2118 H       1  UNL1        0.2103
     32 C          -6.2545   63.1100   80.2342 C.2     1  UNL1       -0.0012
     33 C          -6.0436   63.2546   78.9156 C.2     1  UNL1        0.0197
     34 C          -5.0785   64.3195   78.5138 C.2     1  UNL1        0.2299
     35 O          -4.8421   64.5958   77.3456 O.2     1  UNL1       -0.2835
@<TRIPOS>BOND
     1    32    33    2
     2    33    34    1
     3    34    35    2
     4     1     2    1
     5     1    29    1
     6     1    33    1
     7     2     3    1
     8     3     4    1
     9     4     6    1
    10     4    29    1
    11     4     5    1
    12     6     8    1
    13     6     7    1
    14     7    30    1
    15     8     9    1
    16     9    11    1
    17     9    27    1
    18     9    10    1
    19    11    12    1
    20    11    29    1
    21    12    13    1
    22    13    14    1
    23    14    15    1
    24    14    27    1
    25    15    17    1
    26    15    24    1
    27    15    16    1
    28    17    18    1
    29    18    19    1
    30    19    21    1
    31    19    20    1
    32    20    31    1
    33    21    24    1
    34    21    22    1
    35    21    23    1
    36    24    25    1
    37    25    26    1
    38    26    27    1
    39    27    28    1
#	Name:			CHEMBL3288076
#	Creating user name:	trannguyen
#	Creation time:		Tue Feb  8 17:54:08 2022


#	Modifying user name:	trannguyen
#	Modification time:	Tue Feb  8 17:54:08 2022

@<TRIPOS>MOLECULE
CHEMBL3288076
 36 40 0 0 0
SMALL
GASTEIGER

@<TRIPOS>ATOM
      1 C           0.1804   61.2141   76.6190 C.3     1  UNL1        0.0207
      2 C           1.7034   61.2913   76.9151 C.3     1  UNL1        0.0042
      3 C           2.1371   59.8792   77.3420 C.3     1  UNL1        0.0027
      4 C           0.8976   59.3168   78.0552 C.3     1  UNL1        0.0251
      5 C           0.8456   59.9167   79.4819 C.3     1  UNL1        0.0024
      6 C           0.8378   57.7775   78.1377 C.3     1  UNL1        0.1104
      7 O           1.8470   57.2583   79.0010 O.3     1  UNL1       -0.3845
      8 C          -0.5384   57.3193   78.6682 C.3     1  UNL1        0.0292
      9 C          -1.7625   57.8391   77.8323 C.3     1  UNL1        0.0023
     10 C          -1.6906   57.0200   76.4955 C.3     1  UNL1        0.0001
     11 C          -1.6251   59.3953   77.5473 C.3     1  UNL1        0.0005
     12 C          -2.7379   59.8499   76.5943 C.3     1  UNL1        0.0000
     13 C          -4.1256   59.6055   77.1953 C.3     1  UNL1        0.0000
     14 C          -4.3589   58.1428   77.6457 C.3     1  UNL1        0.0000
     15 C          -5.8432   57.8297   78.1385 C.3     1  UNL1        0.0002
     16 C          -6.2216   58.6525   79.3937 C.3     1  UNL1        0.0000
     17 C          -6.8463   58.2173   77.0096 C.3     1  UNL1        0.0025
     18 C          -8.2668   57.7055   77.2308 C.3     1  UNL1        0.0292
     19 C          -8.3198   56.1979   77.4474 C.3     1  UNL1        0.1104
     20 O          -9.6861   55.8595   77.6863 O.3     1  UNL1       -0.3845
     21 C          -7.3874   55.6931   78.5904 C.3     1  UNL1        0.0247
     22 C          -7.3481   54.1412   78.5099 C.3     1  UNL1        0.0024
     23 C          -7.9692   56.0303   79.9781 C.3     1  UNL1        0.0024
     24 C          -5.9392   56.2694   78.3470 C.3     1  UNL1        0.0022
     25 C          -4.8653   55.7641   79.3344 C.3     1  UNL1        0.0001
     26 C          -3.4442   56.1012   78.8601 C.3     1  UNL1        0.0000
     27 C          -3.1909   57.6069   78.5783 C.3     1  UNL1        0.0001
     28 C          -3.1879   58.3372   79.9560 C.3     1  UNL1        0.0000
     29 C          -0.2155   59.7809   77.0779 C.3     1  UNL1        0.0060
     30 H           2.7085   57.5449   78.6540 H       1  UNL1        0.2103
     31 H          -9.7802   54.8985   77.5823 H       1  UNL1        0.2103
     32 C          -1.0478   62.5972   78.2684 C.2     1  UNL1       -0.0067
     33 C          -0.5500   62.4906   77.0169 C.2     1  UNL1       -0.0156
     34 C          -0.8041   63.6121   76.0492 C.3     1  UNL1        0.1594
     35 O          -1.1792   63.0959   74.7825 O.3     1  UNL1       -0.3775
     36 H          -0.5701   62.3645   74.5851 H       1  UNL1        0.2109
@<TRIPOS>BOND
     1    32    33    2
     2    33    34    1
     3    34    35    1
     4    35    36    1
     5     1     2    1
     6     1    29    1
     7     1    33    1
     8     2     3    1
     9     3     4    1
    10     4     6    1
    11     4    29    1
    12     4     5    1
    13     6     8    1
    14     6     7    1
    15     7    30    1
    16     8     9    1
    17     9    11    1
    18     9    27    1
    19     9    10    1
    20    11    12    1
    21    11    29    1
    22    12    13    1
    23    13    14    1
    24    14    15    1
    25    14    27    1
    26    15    17    1
    27    15    24    1
    28    15    16    1
    29    17    18    1
    30    18    19    1
    31    19    21    1
    32    19    20    1
    33    20    31    1
    34    21    24    1
    35    21    22    1
    36    21    23    1
    37    24    25    1
    38    25    26    1
    39    26    27    1
    40    27    28    1
#	Name:			CHEMBL3288077
#	Creating user name:	trannguyen
#	Creation time:		Tue Feb  8 17:54:08 2022


#	Modifying user name:	trannguyen
#	Modification time:	Tue Feb  8 17:54:08 2022

@<TRIPOS>MOLECULE
CHEMBL3288077
 34 38 0 0 0
SMALL
GASTEIGER

@<TRIPOS>ATOM
      1 C           2.0738   68.5385   62.8486 C.3     1  UNL1        0.0001
      2 C           2.1731   68.2742   61.3111 C.3     1  UNL1        0.0001
      3 C           3.6009   67.8059   61.0402 C.3     1  UNL1        0.0023
      4 C           4.4190   68.5647   62.0863 C.3     1  UNL1        0.0247
      5 C           4.5451   70.0411   61.6109 C.3     1  UNL1        0.0024
      6 C           5.8086   67.9628   62.3599 C.3     1  UNL1        0.1104
      7 O           6.6600   68.0965   61.2238 O.3     1  UNL1       -0.3845
      8 C           6.4917   68.6572   63.5549 C.3     1  UNL1        0.0292
      9 C           5.6191   68.7657   64.8562 C.3     1  UNL1        0.0023
     10 C           5.6023   67.3125   65.4465 C.3     1  UNL1        0.0001
     11 C           4.1344   69.2191   64.5054 C.3     1  UNL1        0.0002
     12 C           3.2745   69.3014   65.7654 C.3     1  UNL1        0.0000
     13 C           3.8683   70.2069   66.8489 C.3     1  UNL1        0.0000
     14 C           5.3284   69.8579   67.2136 C.3     1  UNL1        0.0000
     15 C           5.9049   70.6441   68.4784 C.3     1  UNL1        0.0002
     16 C           5.8873   72.1777   68.2679 C.3     1  UNL1        0.0000
     17 C           5.0071   70.3333   69.7157 C.3     1  UNL1        0.0025
     18 C           5.6023   70.7726   71.0509 C.3     1  UNL1        0.0292
     19 C           6.9947   70.2008   71.2895 C.3     1  UNL1        0.1104
     20 O           7.4505   70.7177   72.5397 O.3     1  UNL1       -0.3845
     21 C           8.0008   70.4983   70.1371 C.3     1  UNL1        0.0247
     22 C           9.2730   69.6422   70.3946 C.3     1  UNL1        0.0024
     23 C           8.4669   71.9677   70.1639 C.3     1  UNL1        0.0024
     24 C           7.3400   70.0623   68.7737 C.3     1  UNL1        0.0022
     25 C           8.2560   70.1884   67.5394 C.3     1  UNL1        0.0001
     26 C           7.6876   69.4171   66.3427 C.3     1  UNL1        0.0000
     27 C           6.2472   69.8245   65.9260 C.3     1  UNL1        0.0001
     28 C           6.3533   71.2376   65.2745 C.3     1  UNL1        0.0000
     29 C           3.5391   68.3591   63.3566 C.3     1  UNL1        0.0022
     30 H           6.2462   67.6153   60.4874 H       1  UNL1        0.2103
     31 H           8.2026   70.1775   72.8315 H       1  UNL1        0.2103
     32 C           1.4613   66.4084   64.2198 C.3     1  UNL1        0.0000
     33 C           0.9561   67.6035   63.4167 C.3     1  UNL1        0.0000
     34 C          -0.0646   67.1212   62.3787 C.3     1  UNL1        0.0000
@<TRIPOS>BOND
     1    32    33    1
     2    33    34    1
     3     1     2    1
     4     1    29    1
     5     1    33    1
     6     2     3    1
     7     3     4    1
     8     4     6    1
     9     4    29    1
    10     4     5    1
    11     6     8    1
    12     6     7    1
    13     7    30    1
    14     8     9    1
    15     9    11    1
    16     9    27    1
    17     9    10    1
    18    11    12    1
    19    11    29    1
    20    12    13    1
    21    13    14    1
    22    14    15    1
    23    14    27    1
    24    15    17    1
    25    15    24    1
    26    15    16    1
    27    17    18    1
    28    18    19    1
    29    19    21    1
    30    19    20    1
    31    20    31    1
    32    21    24    1
    33    21    22    1
    34    21    23    1
    35    24    25    1
    36    25    26    1
    37    26    27    1
    38    27    28    1
#	Name:			CHEMBL3288078
#	Creating user name:	trannguyen
#	Creation time:		Tue Feb  8 17:54:08 2022


#	Modifying user name:	trannguyen
#	Modification time:	Tue Feb  8 17:54:08 2022

@<TRIPOS>MOLECULE
CHEMBL3288078
 35 40 0 0 0
SMALL
GASTEIGER

@<TRIPOS>ATOM
      1 C          -1.8546   52.1153   78.6427 C.3     1  UNL1        0.0024
      2 C          -2.0430   53.0056   77.3983 C.3     1  UNL1        0.0247
      3 C          -1.3159   52.2753   76.2327 C.3     1  UNL1        0.0024
      4 C          -3.5449   53.1236   77.0049 C.3     1  UNL1        0.1104
      5 O          -4.1920   51.8516   76.9851 O.3     1  UNL1       -0.3845
      6 C          -4.3467   54.0196   77.9379 C.3     1  UNL1        0.0292
      7 C          -3.7487   55.4175   78.0466 C.3     1  UNL1        0.0025
      8 C          -2.2523   55.4499   78.4870 C.3     1  UNL1        0.0002
      9 C          -2.2083   55.0862   79.9895 C.3     1  UNL1        0.0000
     10 C          -1.4469   54.4562   77.5624 C.3     1  UNL1        0.0022
     11 C           0.0581   54.4906   77.8906 C.3     1  UNL1        0.0001
     12 C           0.6637   55.8771   77.6558 C.3     1  UNL1        0.0000
     13 C          -0.0739   57.0549   78.3645 C.3     1  UNL1        0.0001
     14 C           0.3744   56.9606   79.8490 C.3     1  UNL1        0.0000
     15 C          -1.6674   56.9130   78.2160 C.3     1  UNL1        0.0000
     16 C          -2.4982   58.0717   78.8778 C.3     1  UNL1        0.0000
     17 C          -2.1084   59.5280   78.5030 C.3     1  UNL1        0.0000
     18 C          -0.6237   59.7152   78.7431 C.3     1  UNL1        0.0002
     19 C           0.2087   61.4387   79.0642 C.3     1  UNL1        0.0046
     20 C           0.2929   62.2334   77.8494 C.3     1  UNL1        0.0275
     21 C           0.8730   60.9167   77.4769 C.3     1  UNL1        0.0025
     22 C           1.4194   60.0732   79.1842 C.3     1  UNL1        0.0024
     23 C           2.0896   61.2745   79.1509 C.3     1  UNL1        0.0248
     24 C           2.7157   61.7025   80.4586 C.3     1  UNL1        0.0024
     25 C           3.0499   60.2316   78.0898 C.3     1  UNL1        0.1104
     26 O           4.2199   59.7586   78.7701 O.3     1  UNL1       -0.3845
     27 C           2.1454   58.7473   77.4547 C.3     1  UNL1        0.0292
     28 C           0.3418   58.4920   77.7144 C.3     1  UNL1        0.0023
     29 C          -0.1904   58.4648   76.1963 C.3     1  UNL1        0.0001
     30 H          -3.8786   51.3694   76.2023 H       1  UNL1        0.2103
     31 H           4.7204   60.5400   79.0594 H       1  UNL1        0.2103
     32 C          -0.9175   62.8485   77.2330 C.3     1  UNL1        0.1200
     33 C          -2.0199   63.1883   78.1985 C.3     1  UNL1        0.0322
     34 C          -0.8997   63.5927   75.9093 C.3     1  UNL1        0.1689
     35 O          -1.4052   62.2569   76.0308 O.3     1  UNL1       -0.3536
@<TRIPOS>BOND
     1     1     2    1
     2     2     4    1
     3     2    10    1
     4     2     3    1
     5     4     6    1
     6     4     5    1
     7     5    30    1
     8     6     7    1
     9     7     8    1
    10     8    10    1
    11     8    15    1
    12     8     9    1
    13    10    11    1
    14    11    12    1
    15    12    13    1
    16    13    15    1
    17    13    28    1
    18    13    14    1
    19    15    16    1
    20    16    17    1
    21    17    18    1
    22    18    19    1
    23    18    28    1
    24    19    20    1
    25    19    23    1
    26    20    21    1
    27    20    32    1
    28    32    33    1
    29    32    34    1
    30    32    35    1
    31    34    35    1
    32    21    22    1
    33    22    23    1
    34    23    25    1
    35    23    24    1
    36    25    27    1
    37    25    26    1
    38    26    31    1
    39    27    28    1
    40    28    29    1
#	Name:			CHEMBL3288080
#	Creating user name:	trannguyen
#	Creation time:		Tue Feb  8 17:54:08 2022


#	Modifying user name:	trannguyen
#	Modification time:	Tue Feb  8 17:54:08 2022

@<TRIPOS>MOLECULE
CHEMBL3288080
 45 49 0 0 0
SMALL
GASTEIGER

@<TRIPOS>ATOM
      1 C           4.6057   67.8234   60.8333 C.3     1  UNL1        0.0208
      2 C           4.8435   66.4191   60.2286 C.3     1  UNL1        0.0042
      3 C           4.2268   65.4339   61.2447 C.3     1  UNL1        0.0027
      4 C           4.3638   66.0901   62.6586 C.3     1  UNL1        0.0276
      5 C           5.3568   65.2556   63.5011 C.3     1  UNL1        0.0025
      6 C           3.0066   66.1770   63.4300 C.3     1  UNL1        0.1431
      7 C           2.7589   67.4450   64.3017 C.3     1  UNL1        0.0320
      8 C           3.7140   68.6922   64.2823 C.3     1  UNL1        0.0024
      9 C           2.9191   69.9121   63.7235 C.3     1  UNL1        0.0001
     10 C           5.0052   68.4325   63.4872 C.3     1  UNL1        0.0005
     11 C           5.8283   69.7084   63.3063 C.3     1  UNL1        0.0000
     12 C           6.3414   70.1635   64.6837 C.3     1  UNL1        0.0000
     13 C           5.2610   70.2632   65.7975 C.3     1  UNL1        0.0000
     14 C           5.8246   70.5490   67.2585 C.3     1  UNL1        0.0002
     15 C           6.8996   69.4957   67.6640 C.3     1  UNL1        0.0000
     16 C           6.5771   71.9103   67.3460 C.3     1  UNL1        0.0026
     17 C           7.1049   72.1932   68.7623 C.3     1  UNL1        0.0320
     18 C           6.2533   71.7853   69.9922 C.3     1  UNL1        0.1431
     19 C           5.0015   70.8451   69.7354 C.3     1  UNL1        0.0273
     20 C           3.8005   71.4621   70.5156 C.3     1  UNL1        0.0025
     21 C           5.2273   69.4079   70.2998 C.3     1  UNL1        0.0025
     22 C           4.6001   70.7754   68.2303 C.3     1  UNL1        0.0023
     23 C           3.3048   69.9471   68.0137 C.3     1  UNL1        0.0001
     24 C           2.9783   69.6095   66.5810 C.3     1  UNL1        0.0000
     25 C           4.1897   69.0711   65.7817 C.3     1  UNL1        0.0001
     26 C           4.7590   67.7885   66.4765 C.3     1  UNL1        0.0000
     27 C           4.9750   67.4753   62.3032 C.3     1  UNL1        0.0061
     28 C           2.8208   68.3743   59.0847 C.2     1  UNL1       -0.0066
     29 C           3.2510   68.3351   60.3506 C.2     1  UNL1       -0.0128
     30 C           2.2752   68.8536   61.3922 C.3     1  UNL1        0.1947
     31 O           0.9784   68.3004   61.1259 O.3     1  UNL1       -0.2366
     32 S           0.0589   67.9953   62.4108 S.3     1  UNL1        0.0002
     33 O           0.1172   66.5501   62.6651 O.2     1  UNL1       -0.3452
     34 O           0.7000   68.6518   63.5330 O.2     1  UNL1       -0.3452
     35 O          -1.2884   68.5138   62.0481 O.3     1  UNL1       -0.2682
     36 O           2.7658   64.9986   64.2229 O.3     1  UNL1       -0.2438
     37 S           4.0131   64.1332   64.8174 S.3     1  UNL1       -0.0002
     38 O           3.5620   63.6451   66.1204 O.2     1  UNL1       -0.3452
     39 O           4.1791   63.0818   63.8205 O.2     1  UNL1       -0.3452
     40 O           5.1148   65.0604   64.9995 O.3     1  UNL1       -0.2682
     41 O           7.0647   71.1215   70.9663 O.3     1  UNL1       -0.2438
     42 S           8.5630   70.5654   70.6575 S.3     1  UNL1       -0.0002
     43 O           8.7166   69.4970   71.6413 O.2     1  UNL1       -0.3452
     44 O           8.5034   70.0953   69.2778 O.2     1  UNL1       -0.3452
     45 O           9.4238   71.7235   70.8714 O.3     1  UNL1       -0.2682
@<TRIPOS>BOND
     1    28    29    2
     2    29    30    1
     3    29     1    1
     4    30    31    1
     5    31    32    1
     6    32    33    2
     7    32    34    2
     8    32    35    1
     9     1     2    1
    10     1    27    1
    11     2     3    1
    12     3     4    1
    13     4     6    1
    14     4    27    1
    15     4     5    1
    16     6     7    1
    17     6    36    1
    18    36    37    1
    19    37    38    2
    20    37    39    2
    21    37    40    1
    22     7     8    1
    23     8    10    1
    24     8    25    1
    25     8     9    1
    26    10    11    1
    27    10    27    1
    28    11    12    1
    29    12    13    1
    30    13    14    1
    31    13    25    1
    32    14    16    1
    33    14    22    1
    34    14    15    1
    35    16    17    1
    36    17    18    1
    37    18    19    1
    38    18    41    1
    39    41    42    1
    40    42    43    2
    41    42    44    2
    42    42    45    1
    43    19    22    1
    44    19    20    1
    45    19    21    1
    46    22    23    1
    47    23    24    1
    48    24    25    1
    49    25    26    1
#	Name:			CHEMBL3288081
#	Creating user name:	trannguyen
#	Creation time:		Tue Feb  8 17:54:08 2022


#	Modifying user name:	trannguyen
#	Modification time:	Tue Feb  8 17:54:08 2022

@<TRIPOS>MOLECULE
CHEMBL3288081
 42 46 0 0 0
SMALL
GASTEIGER

@<TRIPOS>ATOM
      1 C          -5.9524   59.6643   66.4230 C.3     1  UNL1        0.0207
      2 C          -6.8669   59.0093   65.3450 C.3     1  UNL1        0.0042
      3 C          -5.9517   58.5355   64.1845 C.3     1  UNL1        0.0027
      4 C          -4.5060   58.8764   64.6152 C.3     1  UNL1        0.0276
      5 C          -4.1346   60.2849   64.0581 C.3     1  UNL1        0.0025
      6 C          -3.4325   57.8558   64.1559 C.3     1  UNL1        0.1431
      7 C          -2.0864   58.1958   64.8345 C.3     1  UNL1        0.0320
      8 C          -2.1118   58.3270   66.3940 C.3     1  UNL1        0.0024
      9 C          -2.0981   56.8430   66.8892 C.3     1  UNL1        0.0001
     10 C          -3.3864   59.0873   66.9153 C.3     1  UNL1        0.0005
     11 C          -3.5292   58.8725   68.4269 C.3     1  UNL1        0.0000
     12 C          -2.3374   59.4804   69.1646 C.3     1  UNL1        0.0000
     13 C          -0.9307   59.1861   68.5625 C.3     1  UNL1        0.0000
     14 C           0.2321   60.0095   69.2718 C.3     1  UNL1        0.0002
     15 C           0.0347   61.5268   69.0337 C.3     1  UNL1        0.0000
     16 C           0.1725   59.7413   70.8121 C.3     1  UNL1        0.0026
     17 C           1.5227   59.7305   71.5439 C.3     1  UNL1        0.0320
     18 C           2.5950   60.6365   70.9332 C.3     1  UNL1        0.1431
     19 C           2.8825   60.1961   69.4401 C.3     1  UNL1        0.0273
     20 C           4.0279   59.1440   69.5053 C.3     1  UNL1        0.0025
     21 C           3.4450   61.3626   68.5962 C.3     1  UNL1        0.0025
     22 C           1.6212   59.4786   68.7725 C.3     1  UNL1        0.0023
     23 C           1.7140   59.3125   67.2362 C.3     1  UNL1        0.0001
     24 C           0.5174   58.5635   66.6097 C.3     1  UNL1        0.0000
     25 C          -0.8610   59.1778   66.9742 C.3     1  UNL1        0.0001
     26 C          -0.9028   60.6160   66.3504 C.3     1  UNL1        0.0000
     27 C          -4.6694   58.8086   66.1502 C.3     1  UNL1        0.0061
     28 C          -5.3830   61.9794   67.3829 C.2     1  UNL1       -0.0067
     29 C          -5.8881   61.2135   66.3927 C.2     1  UNL1       -0.0156
     30 C          -6.4088   61.9576   65.1809 C.3     1  UNL1        0.1594
     31 O          -7.6855   61.4639   64.7948 O.3     1  UNL1       -0.3775
     32 H          -8.3402   62.0108   65.2594 H       1  UNL1        0.2109
     33 O          -3.3576   57.9574   62.7333 O.3     1  UNL1       -0.2438
     34 S          -4.6074   57.6194   61.7650 S.3     1  UNL1       -0.0002
     35 O          -4.1453   57.7082   60.3848 O.2     1  UNL1       -0.3452
     36 O          -5.0896   56.3104   62.1962 O.2     1  UNL1       -0.3452
     37 O          -5.6294   58.6032   62.1256 O.3     1  UNL1       -0.2682
     38 O           2.2369   62.0126   71.0293 O.3     1  UNL1       -0.2438
     39 S           3.3805   63.1518   71.2214 S.3     1  UNL1       -0.0002
     40 O           2.8466   64.3320   70.5398 O.2     1  UNL1       -0.3452
     41 O           3.3788   63.4692   72.6537 O.2     1  UNL1       -0.3452
     42 O           4.6153   62.6070   70.6894 O.3     1  UNL1       -0.2682
@<TRIPOS>BOND
     1    28    29    2
     2    29    30    1
     3    30    31    1
     4    31    32    1
     5     1     2    1
     6     1    27    1
     7     1    29    1
     8     2     3    1
     9     3     4    1
    10     4     6    1
    11     4    27    1
    12     4     5    1
    13     6     7    1
    14     6    33    1
    15    33    34    1
    16    34    35    2
    17    34    36    2
    18    34    37    1
    19     7     8    1
    20     8    10    1
    21     8    25    1
    22     8     9    1
    23    10    11    1
    24    10    27    1
    25    11    12    1
    26    12    13    1
    27    13    14    1
    28    13    25    1
    29    14    16    1
    30    14    22    1
    31    14    15    1
    32    16    17    1
    33    17    18    1
    34    18    19    1
    35    18    38    1
    36    38    39    1
    37    39    40    2
    38    39    41    2
    39    39    42    1
    40    19    22    1
    41    19    20    1
    42    19    21    1
    43    22    23    1
    44    23    24    1
    45    24    25    1
    46    25    26    1
#	Name:			CHEMBL3288082
#	Creating user name:	trannguyen
#	Creation time:		Tue Feb  8 17:54:08 2022


#	Modifying user name:	trannguyen
#	Modification time:	Tue Feb  8 17:54:08 2022

@<TRIPOS>MOLECULE
CHEMBL3288082
 40 44 0 0 0
SMALL
GASTEIGER

@<TRIPOS>ATOM
      1 C          -3.3563   53.8783   79.4104 C.3     1  UNL1        0.0001
      2 C          -2.2854   52.7999   79.6745 C.3     1  UNL1        0.0001
      3 C          -1.0769   53.1174   78.8047 C.3     1  UNL1        0.0024
      4 C          -1.5915   54.0603   77.6871 C.3     1  UNL1        0.0273
      5 C          -2.1215   53.1240   76.5684 C.3     1  UNL1        0.0025
      6 C          -0.5259   55.0382   77.1341 C.3     1  UNL1        0.1431
      7 C           0.1948   55.6987   78.3499 C.3     1  UNL1        0.0320
      8 C          -0.7646   56.5388   79.3153 C.3     1  UNL1        0.0024
      9 C          -0.5631   56.0179   80.7595 C.3     1  UNL1        0.0001
     10 C          -2.2663   56.2975   78.8754 C.3     1  UNL1        0.0002
     11 C          -3.2661   56.9894   79.7966 C.3     1  UNL1        0.0000
     12 C          -3.1421   58.4954   79.6147 C.3     1  UNL1        0.0000
     13 C          -1.7077   59.0560   79.7605 C.3     1  UNL1        0.0000
     14 C          -1.5511   60.5060   79.1780 C.3     1  UNL1        0.0002
     15 C          -1.8116   60.3444   77.6520 C.3     1  UNL1        0.0000
     16 C          -2.6062   61.5599   79.6326 C.3     1  UNL1        0.0026
     17 C          -2.2954   63.0003   79.1292 C.3     1  UNL1        0.0320
     18 C          -0.9329   63.2245   78.4284 C.3     1  UNL1        0.1431
     19 C           0.2185   62.5504   79.2666 C.3     1  UNL1        0.0273
     20 C           0.4951   63.4558   80.5002 C.3     1  UNL1        0.0025
     21 C           1.5389   62.5299   78.4592 C.3     1  UNL1        0.0025
     22 C          -0.1924   61.0974   79.7821 C.3     1  UNL1        0.0023
     23 C           1.0016   60.1216   80.0821 C.3     1  UNL1        0.0001
     24 C           0.6507   58.6269   80.2974 C.3     1  UNL1        0.0000
     25 C          -0.4443   58.1442   79.2914 C.3     1  UNL1        0.0001
     26 C           0.2222   58.4989   77.9129 C.3     1  UNL1        0.0000
     27 C          -2.7134   54.8601   78.3938 C.3     1  UNL1        0.0023
     28 C          -5.7664   54.2554   78.5419 C.3     1  UNL1        0.0000
     29 C          -4.6800   53.2253   78.8794 C.3     1  UNL1        0.0000
     30 C          -5.2767   52.2171   79.8725 C.3     1  UNL1        0.0000
     31 O          -1.0146   56.1539   76.3916 O.3     1  UNL1       -0.2438
     32 S          -1.6639   56.2517   74.9242 S.3     1  UNL1       -0.0002
     33 O          -3.1078   56.1542   75.1512 O.2     1  UNL1       -0.3452
     34 O          -1.2020   57.5169   74.3570 O.2     1  UNL1       -0.3452
     35 O          -1.1054   55.1709   74.1208 O.3     1  UNL1       -0.2682
     36 O          -0.8516   62.7158   77.1043 O.3     1  UNL1       -0.2438
     37 S          -1.0377   63.5884   75.7485 S.3     1  UNL1       -0.0002
     38 O          -1.9808   64.6425   76.1147 O.2     1  UNL1       -0.3452
     39 O           0.3436   64.0122   75.4830 O.2     1  UNL1       -0.3452
     40 O          -1.4841   62.6533   74.7362 O.3     1  UNL1       -0.2682
@<TRIPOS>BOND
     1    28    29    1
     2    29    30    1
     3     1     2    1
     4     1    27    1
     5     1    29    1
     6     2     3    1
     7     3     4    1
     8     4     6    1
     9     4    27    1
    10     4     5    1
    11     6     7    1
    12     6    31    1
    13    31    32    1
    14    32    33    2
    15    32    34    2
    16    32    35    1
    17     7     8    1
    18     8    10    1
    19     8    25    1
    20     8     9    1
    21    10    11    1
    22    10    27    1
    23    11    12    1
    24    12    13    1
    25    13    14    1
    26    13    25    1
    27    14    16    1
    28    14    22    1
    29    14    15    1
    30    16    17    1
    31    17    18    1
    32    18    19    1
    33    18    36    1
    34    36    37    1
    35    37    38    2
    36    37    39    2
    37    37    40    1
    38    19    22    1
    39    19    20    1
    40    19    21    1
    41    22    23    1
    42    23    24    1
    43    24    25    1
    44    25    26    1
#	Name:			CHEMBL3288083
#	Creating user name:	trannguyen
#	Creation time:		Tue Feb  8 17:54:08 2022


#	Modifying user name:	trannguyen
#	Modification time:	Tue Feb  8 17:54:08 2022

@<TRIPOS>MOLECULE
CHEMBL3288083
 41 46 0 0 0
SMALL
GASTEIGER

@<TRIPOS>ATOM
      1 C          -0.9151   64.0560   80.1515 C.3     1  UNL1        0.0025
      2 C          -2.1204   64.3134   79.2117 C.3     1  UNL1        0.0273
      3 C          -2.4193   65.8120   79.4925 C.3     1  UNL1        0.0025
      4 C          -1.7260   64.0527   77.7102 C.3     1  UNL1        0.1431
      5 C          -2.8294   64.7122   76.8430 C.3     1  UNL1        0.0320
      6 C          -4.2980   64.3186   77.1892 C.3     1  UNL1        0.0026
      7 C          -4.6743   63.7779   78.6425 C.3     1  UNL1        0.0002
      8 C          -5.5369   64.8131   79.3851 C.3     1  UNL1        0.0000
      9 C          -3.3619   63.3883   79.4067 C.3     1  UNL1        0.0023
     10 C          -3.5866   62.7354   80.7597 C.3     1  UNL1        0.0001
     11 C          -4.1731   61.3377   80.4771 C.3     1  UNL1        0.0000
     12 C          -5.4922   61.3708   79.6564 C.3     1  UNL1        0.0001
     13 C          -6.5453   61.7216   80.7537 C.3     1  UNL1        0.0000
     14 C          -5.5275   62.4372   78.4656 C.3     1  UNL1        0.0000
     15 C          -6.9468   62.5403   77.7864 C.3     1  UNL1        0.0000
     16 C          -7.6645   61.1948   77.3786 C.3     1  UNL1        0.0000
     17 C          -7.5640   60.1326   78.4796 C.3     1  UNL1        0.0002
     18 C          -8.6390   58.5216   78.4753 C.3     1  UNL1        0.0047
     19 C          -8.4241   57.9353   77.1726 C.3     1  UNL1        0.0275
     20 C          -7.1179   57.9475   77.9092 C.3     1  UNL1        0.0025
     21 C          -7.4732   58.4482   79.7922 C.3     1  UNL1        0.0025
     22 C          -7.8686   57.1503   79.5714 C.3     1  UNL1        0.0274
     23 C          -8.6864   56.6517   80.7542 C.3     1  UNL1        0.0025
     24 C          -6.0306   56.9601   79.7864 C.3     1  UNL1        0.1431
     25 C          -5.1613   58.5313   79.7494 C.3     1  UNL1        0.0320
     26 C          -5.7886   59.9426   78.9135 C.3     1  UNL1        0.0024
     27 C          -4.8310   59.8454   77.6215 C.3     1  UNL1        0.0001
     28 C          -9.1729   56.6517   76.9004 C.3     1  UNL1        0.1200
     29 C          -8.8258   55.4651   77.7506 C.3     1  UNL1        0.0322
     30 C         -10.5516   56.6471   76.2445 C.3     1  UNL1        0.1689
     31 O          -9.3655   56.3074   75.5220 O.3     1  UNL1       -0.3536
     32 O          -1.7396   62.6674   77.2691 O.3     1  UNL1       -0.2438
     33 S          -0.4603   61.7155   76.9392 S.3     1  UNL1       -0.0002
     34 O          -0.9825   60.4983   76.2529 O.2     1  UNL1       -0.3452
     35 O           0.3466   62.4830   75.9830 O.2     1  UNL1       -0.3452
     36 O           0.1672   61.4247   78.2047 O.3     1  UNL1       -0.2682
     37 O          -5.4758   56.0163   78.8658 O.3     1  UNL1       -0.2438
     38 S          -4.5421   54.7467   79.2668 S.3     1  UNL1       -0.0002
     39 O          -4.5620   53.9138   78.0830 O.2     1  UNL1       -0.3452
     40 O          -3.1921   55.2915   79.5205 O.2     1  UNL1       -0.3452
     41 O          -5.1835   54.1883   80.4559 O.3     1  UNL1       -0.2682
@<TRIPOS>BOND
     1     1     2    1
     2     2     3    1
     3     2     4    1
     4     2     9    1
     5     4    32    1
     6     4     5    1
     7    32    33    1
     8    33    34    2
     9    33    35    2
    10    33    36    1
    11     5     6    1
    12     6     7    1
    13     7     8    1
    14     7     9    1
    15     7    14    1
    16     9    10    1
    17    10    11    1
    18    11    12    1
    19    12    13    1
    20    12    14    1
    21    12    26    1
    22    14    15    1
    23    15    16    1
    24    16    17    1
    25    17    18    1
    26    17    26    1
    27    18    19    1
    28    18    22    1
    29    19    20    1
    30    19    28    1
    31    28    29    1
    32    28    30    1
    33    28    31    1
    34    30    31    1
    35    20    21    1
    36    21    22    1
    37    22    23    1
    38    22    24    1
    39    24    25    1
    40    24    37    1
    41    37    38    1
    42    38    39    2
    43    38    40    2
    44    38    41    1
    45    25    26    1
    46    26    27    1
#	Name:			CHEMBL3288091
#	Creating user name:	trannguyen
#	Creation time:		Tue Feb  8 17:54:08 2022


#	Modifying user name:	trannguyen
#	Modification time:	Tue Feb  8 17:54:08 2022

@<TRIPOS>MOLECULE
CHEMBL3288091
 50 56 0 0 0
SMALL
GASTEIGER

@<TRIPOS>ATOM
      1 C           1.8601   59.8194   74.4683 C.3     1  UNL1        0.0184
      2 C           3.2499   60.4447   74.6843 C.3     1  UNL1        0.0041
      3 C           3.5609   60.3084   76.1645 C.3     1  UNL1        0.0038
      4 C           2.2394   59.9990   76.8788 C.3     1  UNL1        0.0372
      5 C           1.5368   61.3424   77.2025 C.3     1  UNL1        0.0036
      6 C           2.3803   59.1410   78.1569 C.3     1  UNL1        0.1689
      7 C           0.9887   58.6578   78.6567 C.3     1  UNL1        0.0436
      8 C          -0.0509   58.1430   77.5879 C.3     1  UNL1        0.0035
      9 C           0.3051   56.6310   77.3870 C.3     1  UNL1        0.0001
     10 C           0.0699   58.9050   76.2115 C.3     1  UNL1        0.0005
     11 C          -0.8357   58.2744   75.1497 C.3     1  UNL1        0.0000
     12 C          -2.3058   58.2848   75.5977 C.3     1  UNL1        0.0000
     13 C          -2.5772   57.7343   77.0278 C.3     1  UNL1        0.0000
     14 C          -4.1161   57.7577   77.4645 C.3     1  UNL1        0.0002
     15 C          -4.7147   59.1840   77.3689 C.3     1  UNL1        0.0000
     16 C          -4.9350   56.8431   76.5047 C.3     1  UNL1        0.0037
     17 C          -6.3991   56.6671   76.9182 C.3     1  UNL1        0.0436
     18 C          -6.5926   56.2124   78.3682 C.3     1  UNL1        0.1689
     19 C          -5.7298   56.9728   79.4271 C.3     1  UNL1        0.0369
     20 C          -5.7495   56.1168   80.7276 C.3     1  UNL1        0.0036
     21 C          -6.3764   58.3218   79.8288 C.3     1  UNL1        0.0036
     22 C          -4.2558   57.0961   78.8926 C.3     1  UNL1        0.0034
     23 C          -3.2634   57.6487   79.9320 C.3     1  UNL1        0.0001
     24 C          -1.8169   57.5893   79.4378 C.3     1  UNL1        0.0000
     25 C          -1.5788   58.3329   78.0992 C.3     1  UNL1        0.0001
     26 C          -1.8702   59.8477   78.3474 C.3     1  UNL1        0.0000
     27 C           1.5392   59.1174   75.8130 C.3     1  UNL1        0.0071
     28 C           0.8065   58.6908   72.4600 C.2     1  UNL1       -0.0091
     29 C           1.8887   58.9739   73.2051 C.2     1  UNL1       -0.0442
     30 C           3.2289   58.3897   72.8426 C.3     1  UNL1        0.0263
     31 O           2.9357   59.8795   79.2734 O.3     1  UNL1       -0.4492
     32 C           2.1205   60.5046   80.1601 C.2     1  UNL1        0.3411
     33 O           1.1825   60.0485   80.7598 O.2     1  UNL1       -0.2449
     34 C           2.5286   61.9126   80.3272 C.ar    1  UNL1        0.0757
     35 C           3.8675   62.2944   80.4595 C.ar    1  UNL1        0.0069
     36 C           4.1923   63.6435   80.5859 C.ar    1  UNL1        0.0069
     37 C           3.1795   64.6039   80.5898 C.ar    1  UNL1        0.0346
     38 BR          3.6308   66.4299   80.7598 Br      1  UNL1       -0.0490
     39 C           1.8417   64.2339   80.4717 C.ar    1  UNL1        0.0069
     40 C           1.5143   62.8843   80.3443 C.ar    1  UNL1        0.0069
     41 O          -7.9774   56.3750   78.7486 O.3     1  UNL1       -0.4492
     42 C          -8.8576   56.7096   77.7818 C.2     1  UNL1        0.3411
     43 O          -9.3376   55.9727   76.9389 O.2     1  UNL1       -0.2449
     44 C          -9.2791   58.1133   78.0025 C.ar    1  UNL1        0.0757
     45 C          -9.9919   58.5039   79.1446 C.ar    1  UNL1        0.0069
     46 C         -10.3642   59.8409   79.3095 C.ar    1  UNL1        0.0069
     47 C         -10.0430   60.7756   78.3246 C.ar    1  UNL1        0.0346
     48 BR        -10.5377   62.5854   78.5547 Br      1  UNL1       -0.0490
     49 C          -9.3555   60.3885   77.1743 C.ar    1  UNL1        0.0069
     50 C          -8.9641   59.0571   77.0175 C.ar    1  UNL1        0.0069
@<TRIPOS>BOND
     1    28    29    2
     2    29    30    1
     3     1     2    1
     4     1    27    1
     5     1    29    1
     6     2     3    1
     7     3     4    1
     8     4     6    1
     9     4    27    1
    10     4     5    1
    11     6     7    1
    12     6    31    1
    13    31    32    1
    14    32    33    2
    15    32    34    1
    16    34    35   ar
    17    34    40   ar
    18    35    36   ar
    19    36    37   ar
    20    37    38    1
    21    37    39   ar
    22    39    40   ar
    23     7     8    1
    24     8    10    1
    25     8    25    1
    26     8     9    1
    27    10    11    1
    28    10    27    1
    29    11    12    1
    30    12    13    1
    31    13    14    1
    32    13    25    1
    33    14    16    1
    34    14    22    1
    35    14    15    1
    36    16    17    1
    37    17    18    1
    38    18    19    1
    39    18    41    1
    40    41    42    1
    41    42    43    2
    42    42    44    1
    43    44    45   ar
    44    44    50   ar
    45    45    46   ar
    46    46    47   ar
    47    47    48    1
    48    47    49   ar
    49    49    50   ar
    50    19    22    1
    51    19    20    1
    52    19    21    1
    53    22    23    1
    54    23    24    1
    55    24    25    1
    56    25    26    1
#	Name:			CHEMBL3288092
#	Creating user name:	trannguyen
#	Creation time:		Tue Feb  8 17:54:08 2022


#	Modifying user name:	trannguyen
#	Modification time:	Tue Feb  8 17:54:08 2022

@<TRIPOS>MOLECULE
CHEMBL3288092
 52 56 0 0 0
SMALL
GASTEIGER

@<TRIPOS>ATOM
      1 C           2.3520   68.7566   62.6217 C.3     1  UNL1        0.0184
      2 C           3.2443   69.5515   61.5582 C.3     1  UNL1        0.0041
      3 C           4.7194   69.0752   61.7421 C.3     1  UNL1        0.0038
      4 C           4.6983   68.5420   63.1794 C.3     1  UNL1        0.0372
      5 C           4.5309   69.7803   64.0038 C.3     1  UNL1        0.0036
      6 C           5.9078   67.7431   63.7983 C.3     1  UNL1        0.1686
      7 C           5.6660   66.1969   63.6008 C.3     1  UNL1        0.0436
      8 C           4.2671   65.5883   64.1376 C.3     1  UNL1        0.0035
      9 C           3.6067   64.8031   62.9433 C.3     1  UNL1        0.0001
     10 C           3.3703   66.8526   64.4726 C.3     1  UNL1        0.0005
     11 C           2.0847   66.5055   65.1908 C.3     1  UNL1        0.0000
     12 C           2.3903   65.8032   66.5105 C.3     1  UNL1        0.0000
     13 C           3.0613   64.4402   66.2589 C.3     1  UNL1        0.0000
     14 C           3.2239   63.5343   67.5532 C.3     1  UNL1        0.0002
     15 C           4.0802   64.2607   68.6334 C.3     1  UNL1        0.0000
     16 C           1.8469   63.3008   68.2314 C.3     1  UNL1        0.0037
     17 C           1.9616   62.3355   69.4331 C.3     1  UNL1        0.0436
     18 C           2.7004   60.9641   69.2045 C.3     1  UNL1        0.1686
     19 C           3.9686   61.0587   68.2730 C.3     1  UNL1        0.0369
     20 C           4.1894   59.6371   67.6719 C.3     1  UNL1        0.0036
     21 C           5.2617   61.3891   69.0497 C.3     1  UNL1        0.0036
     22 C           3.6555   62.0746   67.1032 C.3     1  UNL1        0.0034
     23 C           4.6320   61.9570   65.9149 C.3     1  UNL1        0.0001
     24 C           4.4779   63.0221   64.8346 C.3     1  UNL1        0.0000
     25 C           4.3741   64.4989   65.3612 C.3     1  UNL1        0.0001
     26 C           5.6705   64.7266   66.1615 C.3     1  UNL1        0.0000
     27 C           3.3840   67.7475   63.1825 C.3     1  UNL1        0.0071
     28 C           0.3474   67.2324   62.5794 C.2     1  UNL1       -0.0091
     29 C           1.1022   68.1732   61.9912 C.2     1  UNL1       -0.0442
     30 C           0.6943   68.6674   60.6444 C.3     1  UNL1        0.0263
     31 O           6.0177   68.0308   65.2803 O.3     1  UNL1       -0.4523
     32 C           5.6275   69.2429   65.8370 C.2     1  UNL1        0.3169
     33 O           4.4809   69.5166   66.1611 O.2     1  UNL1       -0.2501
     34 C           6.8315   70.1595   66.1519 C.3     1  UNL1        0.1096
     35 C           7.1885   70.5134   67.6227 C.3     1  UNL1        0.0122
     36 C           6.2575   71.3020   68.5620 C.3     1  UNL1        0.0122
     37 C           5.4016   70.6608   69.6450 C.3     1  UNL1        0.1094
     38 C           3.9684   70.7914   69.3217 C.2     1  UNL1        0.3138
     39 O           3.1266   69.8266   69.2763 O.2     1  UNL1       -0.2503
     40 O           3.5837   71.9769   68.9341 O.3     1  UNL1       -0.4802
     41 H           2.7767   71.8470   68.3933 H       1  UNL1        0.2951
     42 O           2.9970   60.3770   70.5450 O.3     1  UNL1       -0.4523
     43 C           2.1097   59.8882   71.4917 C.2     1  UNL1        0.3169
     44 O           0.9076   60.1000   71.5616 O.2     1  UNL1       -0.2501
     45 C           2.9182   59.0897   72.5411 C.3     1  UNL1        0.1096
     46 C           2.9572   59.6120   74.0042 C.3     1  UNL1        0.0122
     47 C           1.7494   59.1893   74.9118 C.3     1  UNL1        0.0122
     48 C           1.8351   59.7281   76.3392 C.3     1  UNL1        0.1094
     49 C           1.5005   61.1972   76.5913 C.2     1  UNL1        0.3138
     50 O           0.6562   61.7826   75.9205 O.2     1  UNL1       -0.2503
     51 O           2.1994   61.8794   77.5181 O.3     1  UNL1       -0.4802
     52 H           2.8759   61.4532   78.0724 H       1  UNL1        0.2951
@<TRIPOS>BOND
     1    28    29    2
     2    29    30    1
     3     1     2    1
     4     1    27    1
     5     1    29    1
     6     2     3    1
     7     3     4    1
     8     4     6    1
     9     4    27    1
    10     4     5    1
    11     6     7    1
    12     6    31    1
    13    31    32    1
    14    32    33    2
    15    32    34    1
    16    34    35    1
    17    35    36    1
    18    36    37    1
    19    37    38    1
    20    38    39    2
    21    38    40    1
    22    40    41    1
    23     7     8    1
    24     8    10    1
    25     8    25    1
    26     8     9    1
    27    10    11    1
    28    10    27    1
    29    11    12    1
    30    12    13    1
    31    13    14    1
    32    13    25    1
    33    14    16    1
    34    14    22    1
    35    14    15    1
    36    16    17    1
    37    17    18    1
    38    18    19    1
    39    18    42    1
    40    42    43    1
    41    43    44    2
    42    43    45    1
    43    45    46    1
    44    46    47    1
    45    47    48    1
    46    48    49    1
    47    49    50    2
    48    49    51    1
    49    51    52    1
    50    19    22    1
    51    19    20    1
    52    19    21    1
    53    22    23    1
    54    23    24    1
    55    24    25    1
    56    25    26    1
#	Name:			CHEMBL3288094
#	Creating user name:	trannguyen
#	Creation time:		Tue Feb  8 17:54:08 2022


#	Modifying user name:	trannguyen
#	Modification time:	Tue Feb  8 17:54:08 2022

@<TRIPOS>MOLECULE
CHEMBL3288094
 33 37 0 0 0
SMALL
GASTEIGER

@<TRIPOS>ATOM
      1 C           2.3573   67.1497   63.2939 C.3     1  UNL1        0.0260
      2 C           2.9783   66.3198   62.1603 C.3     1  UNL1        0.0049
      3 C           3.4215   67.3768   61.1567 C.3     1  UNL1        0.0073
      4 C           4.0689   68.4631   62.0293 C.3     1  UNL1        0.0518
      5 C           4.0462   69.8175   61.3047 C.3     1  UNL1        0.0073
      6 C           5.5307   68.1194   62.3223 C.2     1  UNL1        0.1499
      7 O           6.1550   67.2591   61.7020 O.2     1  UNL1       -0.2961
      8 C           6.2210   68.9543   63.3754 C.3     1  UNL1        0.0645
      9 C           5.5064   68.8268   64.7444 C.3     1  UNL1        0.0070
     10 C           5.7842   67.3668   65.1923 C.3     1  UNL1        0.0004
     11 C           3.9639   69.0968   64.5613 C.3     1  UNL1        0.0011
     12 C           3.1878   69.0532   65.8807 C.3     1  UNL1        0.0000
     13 C           3.7609   69.9968   66.9401 C.3     1  UNL1        0.0000
     14 C           5.2753   69.7858   67.1827 C.3     1  UNL1        0.0000
     15 C           5.8614   70.5968   68.4303 C.3     1  UNL1        0.0008
     16 C           5.6233   72.1187   68.2880 C.3     1  UNL1        0.0000
     17 C           5.1419   70.1166   69.7297 C.3     1  UNL1        0.0078
     18 C           5.7496   70.6467   71.0239 C.3     1  UNL1        0.0645
     19 C           7.2385   70.4098   71.1096 C.2     1  UNL1        0.1498
     20 O           7.7368   70.0693   72.1851 O.2     1  UNL1       -0.2961
     21 C           8.0977   70.7509   69.8807 C.3     1  UNL1        0.0515
     22 C           9.4669   70.0452   70.0559 C.3     1  UNL1        0.0073
     23 C           8.3702   72.2628   69.8848 C.3     1  UNL1        0.0073
     24 C           7.3789   70.2048   68.5970 C.3     1  UNL1        0.0065
     25 C           8.1712   70.4307   67.2950 C.3     1  UNL1        0.0004
     26 C           7.5907   69.6162   66.1368 C.3     1  UNL1        0.0000
     27 C           6.0949   69.8983   65.8313 C.3     1  UNL1        0.0004
     28 C           6.0177   71.3436   65.2481 C.3     1  UNL1        0.0000
     29 C           3.2187   68.4706   63.3410 C.3     1  UNL1        0.0107
     30 C           1.0266   66.6034   65.4243 C.2     1  UNL1       -0.0012
     31 C           1.8948   66.2952   64.4510 C.2     1  UNL1        0.0197
     32 C           2.5305   64.9505   64.6293 C.2     1  UNL1        0.2299
     33 O           3.2302   64.6560   65.5963 O.2     1  UNL1       -0.2835
@<TRIPOS>BOND
     1    30    31    2
     2    31    32    1
     3    32    33    2
     4     1     2    1
     5     1    29    1
     6     1    31    1
     7     2     3    1
     8     3     4    1
     9     4     6    1
    10     4    29    1
    11     4     5    1
    12     6     8    1
    13     6     7    2
    14     8     9    1
    15     9    11    1
    16     9    27    1
    17     9    10    1
    18    11    12    1
    19    11    29    1
    20    12    13    1
    21    13    14    1
    22    14    15    1
    23    14    27    1
    24    15    17    1
    25    15    24    1
    26    15    16    1
    27    17    18    1
    28    18    19    1
    29    19    21    1
    30    19    20    2
    31    21    24    1
    32    21    22    1
    33    21    23    1
    34    24    25    1
    35    25    26    1
    36    26    27    1
    37    27    28    1
#	Name:			CHEMBL3309346
#	Creating user name:	trannguyen
#	Creation time:		Tue Feb  8 17:54:08 2022


#	Modifying user name:	trannguyen
#	Modification time:	Tue Feb  8 17:54:08 2022

@<TRIPOS>MOLECULE
CHEMBL3309346
 36 38 0 0 0
SMALL
GASTEIGER

@<TRIPOS>ATOM
      1 C           4.9502   62.7459   63.6790 C.3     1  UNL1        0.0006
      2 C           4.4140   63.5344   64.8821 C.3     1  UNL1        0.0111
      3 C           3.5927   64.7719   64.4130 C.3     1  UNL1        0.0009
      4 C           4.1518   66.1119   64.9346 C.3     1  UNL1        0.0041
      5 C           3.7658   67.4036   64.1333 C.3     1  UNL1        0.0203
      6 C           4.6844   67.5467   62.9202 C.2     1  UNL1       -0.0198
      7 C           5.8496   68.2143   63.0339 C.2     1  UNL1       -0.0322
      8 C           6.3114   68.9532   64.2539 C.3     1  UNL1        0.0255
      9 C           5.3275   68.9472   65.4487 C.3     1  UNL1        0.0046
     10 C           5.6162   70.0462   66.5279 C.3     1  UNL1        0.0003
     11 C           5.6545   71.4895   65.9887 C.3     1  UNL1        0.0000
     12 C           7.0104   69.7591   67.1444 C.3     1  UNL1        0.0000
     13 C           4.5798   69.9445   67.6755 C.3     1  UNL1        0.0000
     14 C           3.1305   69.8652   67.2093 C.3     1  UNL1        0.0000
     15 C           2.9216   68.6956   66.2436 C.3     1  UNL1        0.0003
     16 C           3.8396   68.7570   64.9944 C.3     1  UNL1        0.0038
     17 C           3.3279   69.9256   64.0991 C.3     1  UNL1        0.0003
     18 C           4.1907   66.9982   61.6033 C.3     1  UNL1        0.1590
     19 O           3.5185   68.0110   60.8634 O.3     1  UNL1       -0.3776
     20 H           3.5044   67.7319   59.9353 H       1  UNL1        0.2109
     21 C           3.5439   62.6258   65.7739 C.3     1  UNL1        0.1096
     22 C           3.6300   62.9212   67.2504 C.2     1  UNL1        0.3170
     23 O           3.6482   64.0575   67.7398 O.2     1  UNL1       -0.2501
     24 O           3.6759   61.7552   67.9572 O.3     1  UNL1       -0.4485
     25 C           2.4345   61.3354   68.5404 C.3     1  UNL1        0.2084
     26 C           2.6737   60.1656   69.4922 C.3     1  UNL1        0.0474
     27 C           2.0555   60.3767   70.8764 C.3     1  UNL1        0.0039
     28 C           2.4609   59.2657   71.8569 C.3     1  UNL1        0.0016
     29 C           3.0741   59.7959   73.1591 C.3     1  UNL1        0.0173
     30 C           2.5838   58.9905   74.3900 C.3     1  UNL1        0.0721
     31 N           1.5023   59.6433   75.1442 N.3     1  UNL1       -0.2727
     32 C           0.6561   58.7619   75.9535 C.3     1  UNL1        0.0721
     33 C           1.1776   58.3888   77.3481 C.3     1  UNL1        0.0174
     34 C           1.8043   59.5451   78.1217 C.3     1  UNL1        0.0029
     35 C           2.6687   60.4353   77.2398 C.3     1  UNL1        0.0174
     36 C           1.9485   60.7965   75.9401 C.3     1  UNL1        0.0721
@<TRIPOS>BOND
     1     1     2    1
     2     2     3    1
     3     2    21    1
     4     3     4    1
     5     4     5    1
     6     5     6    1
     7     5    16    1
     8     6    18    1
     9     6     7    2
    10    18    19    1
    11    19    20    1
    12     7     8    1
    13     8     9    1
    14     9    10    1
    15     9    16    1
    16    10    11    1
    17    10    12    1
    18    10    13    1
    19    13    14    1
    20    14    15    1
    21    15    16    1
    22    16    17    1
    23    21    22    1
    24    22    23    2
    25    22    24    1
    26    24    25    1
    27    25    26    1
    28    26    27    1
    29    27    28    1
    30    28    29    1
    31    29    30    1
    32    30    31    1
    33    31    32    1
    34    31    36    1
    35    32    33    1
    36    33    34    1
    37    34    35    1
    38    35    36    1
#	Name:			CHEMBL3309347
#	Creating user name:	trannguyen
#	Creation time:		Tue Feb  8 17:54:08 2022


#	Modifying user name:	trannguyen
#	Modification time:	Tue Feb  8 17:54:08 2022

@<TRIPOS>MOLECULE
CHEMBL3309347
 32 34 0 0 0
SMALL
GASTEIGER

@<TRIPOS>ATOM
      1 C          -2.1218   58.0844   75.8113 C.3     1  UNL1        0.0041
      2 C          -0.8584   57.1462   75.9332 C.3     1  UNL1        0.0203
      3 C           0.3838   57.7370   76.6082 C.2     1  UNL1       -0.0198
      4 C           1.0169   57.1090   77.6122 C.2     1  UNL1       -0.0322
      5 C           0.6627   55.7519   78.0981 C.3     1  UNL1        0.0255
      6 C           0.0247   54.8998   76.9868 C.3     1  UNL1        0.0046
      7 C          -0.1902   53.3948   77.4090 C.3     1  UNL1        0.0003
      8 C          -0.8784   53.2146   78.7856 C.3     1  UNL1        0.0000
      9 C           1.1971   52.7110   77.5634 C.3     1  UNL1        0.0000
     10 C          -0.9478   52.5965   76.3092 C.3     1  UNL1        0.0000
     11 C          -2.0406   53.3373   75.5386 C.3     1  UNL1        0.0000
     12 C          -1.6532   54.7709   75.1536 C.3     1  UNL1        0.0003
     13 C          -1.2257   55.6268   76.3849 C.3     1  UNL1        0.0038
     14 C          -2.4029   55.6362   77.3724 C.3     1  UNL1        0.0003
     15 C           1.1062   58.9079   75.9889 C.3     1  UNL1        0.1590
     16 O           2.1417   58.4420   75.1516 O.3     1  UNL1       -0.3776
     17 H           2.7920   59.1612   75.0966 H       1  UNL1        0.2109
     18 C          -2.4268   59.2468   76.7777 C.3     1  UNL1        0.0009
     19 C          -3.9700   58.7731   78.6989 C.3     1  UNL1        0.0006
     20 C          -3.9016   59.4044   77.2793 C.3     1  UNL1        0.0111
     21 C          -5.0597   58.7679   76.4581 C.3     1  UNL1        0.1096
     22 C          -5.6035   59.5106   75.2354 C.2     1  UNL1        0.3170
     23 O          -4.9514   60.0695   74.3777 O.2     1  UNL1       -0.2501
     24 O          -6.9645   59.4358   75.2629 O.3     1  UNL1       -0.4470
     25 C          -7.6819   60.0246   76.3696 C.3     1  UNL1        0.2257
     26 C          -7.4975   61.5302   76.3067 C.3     1  UNL1        0.1203
     27 N          -6.6784   62.1913   77.3056 N.3     1  UNL1       -0.2653
     28 C          -6.5218   61.5465   78.6136 C.3     1  UNL1        0.1047
     29 C          -5.3458   62.2362   79.3440 C.3     1  UNL1        0.1595
     30 O          -5.5462   63.6570   79.4686 O.3     1  UNL1       -0.3508
     31 C          -5.7689   64.2484   78.1772 C.3     1  UNL1        0.1595
     32 C          -6.9885   63.6127   77.5020 C.3     1  UNL1        0.1047
@<TRIPOS>BOND
     1    19    20    1
     2    20    18    1
     3    20    21    1
     4    18     1    1
     5     1     2    1
     6     2     3    1
     7     2    13    1
     8     3    15    1
     9     3     4    2
    10    15    16    1
    11    16    17    1
    12     4     5    1
    13     5     6    1
    14     6     7    1
    15     6    13    1
    16     7     8    1
    17     7     9    1
    18     7    10    1
    19    10    11    1
    20    11    12    1
    21    12    13    1
    22    13    14    1
    23    21    22    1
    24    22    23    2
    25    22    24    1
    26    24    25    1
    27    25    26    1
    28    26    27    1
    29    27    28    1
    30    27    32    1
    31    28    29    1
    32    29    30    1
    33    30    31    1
    34    31    32    1
#	Name:			CHEMBL3309348
#	Creating user name:	trannguyen
#	Creation time:		Tue Feb  8 17:54:08 2022


#	Modifying user name:	trannguyen
#	Modification time:	Tue Feb  8 17:54:08 2022

@<TRIPOS>MOLECULE
CHEMBL3309348
 33 35 0 0 0
SMALL
GASTEIGER

@<TRIPOS>ATOM
      1 C          -2.9525   55.0631   78.7597 C.3     1  UNL1        0.0041
      2 C          -1.7451   55.5282   77.7943 C.3     1  UNL1        0.0203
      3 C          -2.0888   55.5028   76.3002 C.2     1  UNL1       -0.0198
      4 C          -2.3231   56.6175   75.5733 C.2     1  UNL1       -0.0322
      5 C          -1.4794   57.8438   75.8081 C.3     1  UNL1        0.0255
      6 C          -0.3597   57.5590   76.8336 C.3     1  UNL1        0.0046
      7 C           0.6606   58.7476   77.0180 C.3     1  UNL1        0.0003
      8 C           0.0333   60.1481   77.2584 C.3     1  UNL1        0.0000
      9 C           1.4462   58.9415   75.6878 C.3     1  UNL1        0.0000
     10 C           1.7176   58.3281   78.0807 C.3     1  UNL1        0.0000
     11 C           1.2050   57.6369   79.3455 C.3     1  UNL1        0.0000
     12 C           0.2278   56.5091   79.0437 C.3     1  UNL1        0.0003
     13 C          -0.9700   56.9106   78.1469 C.3     1  UNL1        0.0038
     14 C          -1.8522   57.9714   78.8303 C.3     1  UNL1        0.0003
     15 C          -1.4488   54.3877   75.4990 C.3     1  UNL1        0.1590
     16 O          -1.0853   54.8478   74.2211 O.3     1  UNL1       -0.3776
     17 H          -0.2443   54.4165   74.0074 H       1  UNL1        0.2109
     18 C          -4.1417   54.2958   78.0456 C.3     1  UNL1        0.0009
     19 C          -3.5891   51.9374   77.2401 C.3     1  UNL1        0.0006
     20 C          -4.4137   52.7774   78.2571 C.3     1  UNL1        0.0111
     21 C          -5.8094   52.4315   77.9360 C.3     1  UNL1        0.1096
     22 C          -6.7823   53.2081   78.8085 C.2     1  UNL1        0.3170
     23 O          -6.7429   53.1341   79.9621 O.2     1  UNL1       -0.2501
     24 O          -7.6477   54.0656   78.1566 O.3     1  UNL1       -0.4484
     25 C          -7.8968   55.0640   79.1356 C.3     1  UNL1        0.2099
     26 C          -8.6491   56.3526   78.7084 C.3     1  UNL1        0.0647
     27 C          -7.9092   57.6876   78.2260 C.3     1  UNL1        0.0761
     28 N          -7.2462   57.8002   76.8798 N.3     1  UNL1       -0.2683
     29 C          -7.4426   59.0856   76.1779 C.3     1  UNL1        0.1046
     30 C          -6.5429   60.2915   76.5398 C.3     1  UNL1        0.1595
     31 O          -5.1828   59.9992   76.2869 O.3     1  UNL1       -0.3508
     32 C          -4.8815   58.9377   77.1566 C.3     1  UNL1        0.1595
     33 C          -5.7883   57.5930   76.8077 C.3     1  UNL1        0.1046
@<TRIPOS>BOND
     1    19    20    1
     2    20    18    1
     3    20    21    1
     4    18     1    1
     5     1     2    1
     6     2     3    1
     7     2    13    1
     8     3    15    1
     9     3     4    2
    10    15    16    1
    11    16    17    1
    12     4     5    1
    13     5     6    1
    14     6     7    1
    15     6    13    1
    16     7     8    1
    17     7     9    1
    18     7    10    1
    19    10    11    1
    20    11    12    1
    21    12    13    1
    22    13    14    1
    23    21    22    1
    24    22    23    2
    25    22    24    1
    26    24    25    1
    27    25    26    1
    28    26    27    1
    29    27    28    1
    30    28    29    1
    31    28    33    1
    32    29    30    1
    33    30    31    1
    34    31    32    1
    35    32    33    1
#	Name:			CHEMBL3309349
#	Creating user name:	trannguyen
#	Creation time:		Tue Feb  8 17:54:08 2022


#	Modifying user name:	trannguyen
#	Modification time:	Tue Feb  8 17:54:08 2022

@<TRIPOS>MOLECULE
CHEMBL3309349
 34 36 0 0 0
SMALL
GASTEIGER

@<TRIPOS>ATOM
      1 C          -2.2636   60.8656   77.6939 C.3     1  UNL1        0.0009
      2 C           0.2888   60.7985   77.7393 C.3     1  UNL1        0.0006
      3 C          -0.9584   61.4103   77.0751 C.3     1  UNL1        0.0111
      4 C          -0.8548   62.9453   77.1143 C.3     1  UNL1        0.1096
      5 C          -1.3070   63.6213   75.8309 C.2     1  UNL1        0.3170
      6 O          -1.0258   63.2380   74.7216 O.2     1  UNL1       -0.2501
      7 O          -2.0521   64.7330   76.1260 O.3     1  UNL1       -0.4485
      8 C          -2.5697   64.7881   77.4622 C.3     1  UNL1        0.2085
      9 C          -3.8704   65.5877   77.5231 C.3     1  UNL1        0.0489
     10 C          -4.8528   65.0204   78.5514 C.3     1  UNL1        0.0212
     11 C          -4.8818   63.4805   78.5997 C.3     1  UNL1        0.0724
     12 N          -6.1670   62.9502   79.0854 N.3     1  UNL1       -0.2685
     13 C          -7.2916   63.2240   78.1607 C.3     1  UNL1        0.1046
     14 C          -7.2586   62.3878   76.8695 C.3     1  UNL1        0.1595
     15 O          -7.2137   60.9842   77.1511 O.3     1  UNL1       -0.3508
     16 C          -6.0900   60.6662   77.9818 C.3     1  UNL1        0.1595
     17 C          -6.1173   61.4796   79.2893 C.3     1  UNL1        0.1046
     18 C          -2.3907   59.3319   77.7991 C.3     1  UNL1        0.0041
     19 C          -2.3684   58.4041   76.5383 C.3     1  UNL1        0.0203
     20 C          -3.8477   58.1764   76.1682 C.2     1  UNL1       -0.0198
     21 C          -4.5349   57.1662   76.7422 C.2     1  UNL1       -0.0322
     22 C          -3.9290   56.1502   77.6711 C.3     1  UNL1        0.0255
     23 C          -2.3783   56.1767   77.7763 C.3     1  UNL1        0.0046
     24 C          -1.7335   54.7959   78.1573 C.3     1  UNL1        0.0003
     25 C          -2.1046   53.6403   77.2041 C.3     1  UNL1        0.0000
     26 C          -2.2141   54.3795   79.5720 C.3     1  UNL1        0.0000
     27 C          -0.1920   54.9379   78.2453 C.3     1  UNL1        0.0000
     28 C           0.4561   55.6474   77.0642 C.3     1  UNL1        0.0000
     29 C          -0.1709   57.0224   76.8255 C.3     1  UNL1        0.0003
     30 C          -1.6977   56.9655   76.6014 C.3     1  UNL1        0.0038
     31 C          -1.8838   56.3147   75.1872 C.3     1  UNL1        0.0003
     32 C          -4.4260   59.0574   75.0900 C.3     1  UNL1        0.1590
     33 O          -3.4080   59.8308   74.4641 O.3     1  UNL1       -0.3776
     34 H          -2.9167   60.2693   75.1811 H       1  UNL1        0.2109
@<TRIPOS>BOND
     1     2     3    1
     2     3     1    1
     3     3     4    1
     4     1    18    1
     5    18    19    1
     6    19    20    1
     7    19    30    1
     8    20    32    1
     9    20    21    2
    10    32    33    1
    11    33    34    1
    12    21    22    1
    13    22    23    1
    14    23    24    1
    15    23    30    1
    16    24    25    1
    17    24    26    1
    18    24    27    1
    19    27    28    1
    20    28    29    1
    21    29    30    1
    22    30    31    1
    23     4     5    1
    24     5     6    2
    25     5     7    1
    26     7     8    1
    27     8     9    1
    28     9    10    1
    29    10    11    1
    30    11    12    1
    31    12    13    1
    32    12    17    1
    33    13    14    1
    34    14    15    1
    35    15    16    1
    36    16    17    1
#	Name:			CHEMBL3309350
#	Creating user name:	trannguyen
#	Creation time:		Tue Feb  8 17:54:08 2022


#	Modifying user name:	trannguyen
#	Modification time:	Tue Feb  8 17:54:08 2022

@<TRIPOS>MOLECULE
CHEMBL3309350
 35 37 0 0 0
SMALL
GASTEIGER

@<TRIPOS>ATOM
      1 C          -3.9684   56.9086   75.6203 C.3     1  UNL1        0.0009
      2 C          -1.6150   57.8219   75.1784 C.3     1  UNL1        0.0006
      3 C          -2.4478   56.7513   75.8873 C.3     1  UNL1        0.0111
      4 C          -1.9238   55.3536   75.5344 C.3     1  UNL1        0.1096
      5 C          -0.7104   54.9528   76.3394 C.2     1  UNL1        0.3170
      6 O           0.4128   54.8573   75.8870 O.2     1  UNL1       -0.2501
      7 O          -1.0725   54.7246   77.6346 O.3     1  UNL1       -0.4485
      8 C          -0.2218   55.3266   78.6194 C.3     1  UNL1        0.2084
      9 C          -0.7187   56.7428   78.8859 C.3     1  UNL1        0.0475
     10 C           0.2875   57.6265   79.6211 C.3     1  UNL1        0.0053
     11 C           1.5479   57.7775   78.7588 C.3     1  UNL1        0.0175
     12 C           1.3184   58.5423   77.4473 C.3     1  UNL1        0.0722
     13 N           2.3107   59.6172   77.2311 N.3     1  UNL1       -0.2685
     14 C           1.8576   60.5755   76.1935 C.3     1  UNL1        0.1046
     15 C           0.7271   61.5167   76.6576 C.3     1  UNL1        0.1595
     16 O           1.0552   62.2050   77.8726 O.3     1  UNL1       -0.3508
     17 C           1.4391   61.2851   78.9028 C.3     1  UNL1        0.1595
     18 C           2.6174   60.4166   78.4401 C.3     1  UNL1        0.1046
     19 C          -4.7668   57.0302   76.9364 C.3     1  UNL1        0.0041
     20 C          -5.6504   58.2968   77.1747 C.3     1  UNL1        0.0203
     21 C          -7.1306   58.0725   77.5056 C.2     1  UNL1       -0.0198
     22 C          -7.8605   59.0640   78.0534 C.2     1  UNL1       -0.0322
     23 C          -7.3420   60.4028   78.4707 C.3     1  UNL1        0.0255
     24 C          -5.8262   60.6224   78.2868 C.3     1  UNL1        0.0046
     25 C          -5.2474   61.7686   79.2043 C.3     1  UNL1        0.0003
     26 C          -5.2876   61.4794   80.7235 C.3     1  UNL1        0.0000
     27 C          -6.0557   63.0728   79.0008 C.3     1  UNL1        0.0000
     28 C          -3.7880   62.0417   78.7724 C.3     1  UNL1        0.0000
     29 C          -2.9182   60.7894   78.7298 C.3     1  UNL1        0.0000
     30 C          -3.5327   59.6478   77.9138 C.3     1  UNL1        0.0003
     31 C          -5.0026   59.2807   78.2819 C.3     1  UNL1        0.0038
     32 C          -5.0320   58.5780   79.6660 C.3     1  UNL1        0.0003
     33 C          -7.8125   56.7571   77.2554 C.3     1  UNL1        0.1590
     34 O          -8.2605   56.7141   75.9114 O.3     1  UNL1       -0.3776
     35 H          -8.7251   57.5536   75.7511 H       1  UNL1        0.2109
@<TRIPOS>BOND
     1     2     3    1
     2     3     1    1
     3     3     4    1
     4     1    19    1
     5    19    20    1
     6    20    21    1
     7    20    31    1
     8    21    33    1
     9    21    22    2
    10    33    34    1
    11    34    35    1
    12    22    23    1
    13    23    24    1
    14    24    25    1
    15    24    31    1
    16    25    26    1
    17    25    27    1
    18    25    28    1
    19    28    29    1
    20    29    30    1
    21    30    31    1
    22    31    32    1
    23     4     5    1
    24     5     6    2
    25     5     7    1
    26     7     8    1
    27     8     9    1
    28     9    10    1
    29    10    11    1
    30    11    12    1
    31    12    13    1
    32    13    14    1
    33    13    18    1
    34    14    15    1
    35    15    16    1
    36    16    17    1
    37    17    18    1
#	Name:			CHEMBL3309351
#	Creating user name:	trannguyen
#	Creation time:		Tue Feb  8 17:54:08 2022


#	Modifying user name:	trannguyen
#	Modification time:	Tue Feb  8 17:54:08 2022

@<TRIPOS>MOLECULE
CHEMBL3309351
 36 38 0 0 0
SMALL
GASTEIGER

@<TRIPOS>ATOM
      1 C           4.4485   64.7464   62.6904 C.3     1  UNL1        0.0006
      2 C           4.8822   65.8597   63.6530 C.3     1  UNL1        0.0111
      3 C           4.7436   67.2516   62.9673 C.3     1  UNL1        0.0009
      4 C           5.4776   68.4481   63.6280 C.3     1  UNL1        0.0041
      5 C           4.6499   69.5111   64.4780 C.3     1  UNL1        0.0203
      6 C           3.1584   69.1509   64.6458 C.2     1  UNL1       -0.0198
      7 C           2.5997   68.8705   65.8423 C.2     1  UNL1       -0.0322
      8 C           3.2872   69.0780   67.1549 C.3     1  UNL1        0.0255
      9 C           4.3085   70.2136   67.0058 C.3     1  UNL1        0.0046
     10 C           4.8348   70.7898   68.3739 C.3     1  UNL1        0.0003
     11 C           5.4490   69.7626   69.3500 C.3     1  UNL1        0.0000
     12 C           3.6398   71.4198   69.1450 C.3     1  UNL1        0.0000
     13 C           5.8480   71.9249   68.0822 C.3     1  UNL1        0.0000
     14 C           6.8999   71.5863   67.0251 C.3     1  UNL1        0.0000
     15 C           6.2783   71.0843   65.7212 C.3     1  UNL1        0.0003
     16 C           5.3749   69.8366   65.9086 C.3     1  UNL1        0.0038
     17 C           6.2526   68.6457   66.3670 C.3     1  UNL1        0.0003
     18 C           2.2538   69.2523   63.4429 C.3     1  UNL1        0.1590
     19 O           1.7286   67.9701   63.1246 O.3     1  UNL1       -0.3776
     20 H           2.4375   67.4790   62.6781 H       1  UNL1        0.2109
     21 C           4.1273   65.7679   64.9857 C.3     1  UNL1        0.1096
     22 C           2.7860   65.0762   64.7906 C.2     1  UNL1        0.3170
     23 O           1.7609   65.6584   64.5242 O.2     1  UNL1       -0.2501
     24 O           2.9399   63.7324   65.0595 O.3     1  UNL1       -0.4485
     25 C           4.0138   63.3940   65.9518 C.3     1  UNL1        0.2084
     26 C           3.5373   63.2445   67.3944 C.3     1  UNL1        0.0474
     27 C           3.7520   61.8619   68.0120 C.3     1  UNL1        0.0039
     28 C           2.4839   61.3606   68.7276 C.3     1  UNL1        0.0016
     29 C           2.6839   60.0609   69.5129 C.3     1  UNL1        0.0173
     30 C           2.1480   60.0951   70.9711 C.3     1  UNL1        0.0722
     31 N           2.3886   58.8895   71.7859 N.3     1  UNL1       -0.2685
     32 C           3.7861   58.8181   72.2957 C.3     1  UNL1        0.1046
     33 C           4.0897   59.7385   73.4948 C.3     1  UNL1        0.1595
     34 O           3.1719   59.5150   74.5709 O.3     1  UNL1       -0.3508
     35 C           1.8274   59.7145   74.1203 C.3     1  UNL1        0.1595
     36 C           1.4859   58.7724   72.9521 C.3     1  UNL1        0.1046
@<TRIPOS>BOND
     1     1     2    1
     2     2     3    1
     3     2    21    1
     4     3     4    1
     5     4     5    1
     6     5     6    1
     7     5    16    1
     8     6    18    1
     9     6     7    2
    10    18    19    1
    11    19    20    1
    12     7     8    1
    13     8     9    1
    14     9    10    1
    15     9    16    1
    16    10    11    1
    17    10    12    1
    18    10    13    1
    19    13    14    1
    20    14    15    1
    21    15    16    1
    22    16    17    1
    23    21    22    1
    24    22    23    2
    25    22    24    1
    26    24    25    1
    27    25    26    1
    28    26    27    1
    29    27    28    1
    30    28    29    1
    31    29    30    1
    32    30    31    1
    33    31    32    1
    34    31    36    1
    35    32    33    1
    36    33    34    1
    37    34    35    1
    38    35    36    1
#	Name:			CHEMBL3311456
#	Creating user name:	trannguyen
#	Creation time:		Tue Feb  8 17:54:08 2022


#	Modifying user name:	trannguyen
#	Modification time:	Tue Feb  8 17:54:08 2022

@<TRIPOS>MOLECULE
CHEMBL3311456
 25 26 0 0 0
SMALL
GASTEIGER

@<TRIPOS>ATOM
      1 C           5.3906   67.7891   63.1458 C.3     1  UNL1        0.0203
      2 C           4.5912   68.9447   62.5536 C.2     1  UNL1       -0.0198
      3 C           3.3511   69.2143   63.0092 C.2     1  UNL1       -0.0322
      4 C           2.6112   68.3641   64.0186 C.3     1  UNL1        0.0255
      5 C           3.3721   67.1145   64.5404 C.3     1  UNL1        0.0046
      6 C           2.4805   66.0519   65.2740 C.3     1  UNL1        0.0003
      7 C           1.3058   65.5111   64.4385 C.3     1  UNL1        0.0000
      8 C           1.8605   66.6944   66.5418 C.3     1  UNL1        0.0000
      9 C           3.3764   64.8792   65.7461 C.3     1  UNL1        0.0000
     10 C           4.2259   64.2798   64.6321 C.3     1  UNL1        0.0000
     11 C           5.1454   65.3310   64.0022 C.3     1  UNL1        0.0003
     12 C           4.3925   66.5825   63.4753 C.3     1  UNL1        0.0038
     13 C           3.7113   66.1505   62.1383 C.3     1  UNL1        0.0003
     14 C           5.2378   69.7115   61.4276 C.3     1  UNL1        0.1590
     15 O           4.2767   69.9396   60.4088 O.3     1  UNL1       -0.3776
     16 H           3.5667   70.4673   60.8102 H       1  UNL1        0.2109
     17 C           6.2226   68.3221   64.3706 C.3     1  UNL1        0.0041
     18 C           5.7213   69.6483   64.9762 C.3     1  UNL1        0.0009
     19 C           4.2236   69.9264   66.9703 C.3     1  UNL1        0.0006
     20 C           5.6761   69.7036   66.5203 C.3     1  UNL1        0.0111
     21 C           6.6200   70.7289   67.1651 C.3     1  UNL1        0.1094
     22 C           6.0901   71.3750   68.4232 C.2     1  UNL1        0.3138
     23 O           6.0516   70.8164   69.5196 O.2     1  UNL1       -0.2503
     24 O           5.6484   72.6356   68.2430 O.3     1  UNL1       -0.4802
     25 H           5.7747   72.9768   67.3365 H       1  UNL1        0.2951
@<TRIPOS>BOND
     1    19    20    1
     2    20    18    1
     3    20    21    1
     4    18    17    1
     5    17     1    1
     6     1     2    1
     7     1    12    1
     8     2    14    1
     9     2     3    2
    10    14    15    1
    11    15    16    1
    12     3     4    1
    13     4     5    1
    14     5     6    1
    15     5    12    1
    16     6     7    1
    17     6     8    1
    18     6     9    1
    19     9    10    1
    20    10    11    1
    21    11    12    1
    22    12    13    1
    23    21    22    1
    24    22    23    2
    25    22    24    1
    26    24    25    1
#	Name:			CHEMBL3311457
#	Creating user name:	trannguyen
#	Creation time:		Tue Feb  8 17:54:08 2022


#	Modifying user name:	trannguyen
#	Modification time:	Tue Feb  8 17:54:08 2022

@<TRIPOS>MOLECULE
CHEMBL3311457
 31 33 0 0 0
SMALL
GASTEIGER

@<TRIPOS>ATOM
      1 C          -1.0119   57.1957   75.8590 C.3     1  UNL1        0.0203
      2 C           0.1441   57.7698   76.7197 C.2     1  UNL1       -0.0198
      3 C           0.6483   57.1300   77.7952 C.2     1  UNL1       -0.0322
      4 C           0.2622   55.7603   78.2320 C.3     1  UNL1        0.0255
      5 C          -0.2645   54.9585   77.0357 C.3     1  UNL1        0.0046
      6 C          -0.3863   53.4178   77.3451 C.3     1  UNL1        0.0003
      7 C          -1.0713   53.0750   78.6869 C.3     1  UNL1        0.0000
      8 C           1.0475   52.8157   77.4510 C.3     1  UNL1        0.0000
      9 C          -1.0873   52.6855   76.1773 C.3     1  UNL1        0.0000
     10 C          -2.3149   53.3993   75.6229 C.3     1  UNL1        0.0000
     11 C          -2.0047   54.8451   75.2160 C.3     1  UNL1        0.0003
     12 C          -1.4961   55.7134   76.3995 C.3     1  UNL1        0.0038
     13 C          -2.6619   55.8686   77.4091 C.3     1  UNL1        0.0003
     14 C           0.9321   58.9618   76.2308 C.3     1  UNL1        0.1590
     15 O           1.1867   58.8559   74.8439 O.3     1  UNL1       -0.3776
     16 H           0.3275   58.8546   74.3920 H       1  UNL1        0.2109
     17 C          -2.2555   58.1623   75.6507 C.3     1  UNL1        0.0041
     18 C          -2.4595   59.4233   76.5332 C.3     1  UNL1        0.0009
     19 C          -3.7237   59.1965   78.7572 C.3     1  UNL1        0.0006
     20 C          -3.8498   59.5033   77.2521 C.3     1  UNL1        0.0111
     21 C          -4.9975   58.6631   76.6389 C.3     1  UNL1        0.1096
     22 C          -5.9230   59.3846   75.6670 C.2     1  UNL1        0.3170
     23 O          -5.5661   60.1287   74.7828 O.2     1  UNL1       -0.2501
     24 O          -7.2208   58.9729   75.8447 O.3     1  UNL1       -0.4470
     25 C          -7.9295   59.6964   76.8761 C.3     1  UNL1        0.2257
     26 C          -8.9952   60.6330   76.2692 C.3     1  UNL1        0.1201
     27 N          -8.9234   62.0286   76.7372 N.3     1  UNL1       -0.2696
     28 C          -9.4689   62.1893   78.0917 C.3     1  UNL1        0.0722
     29 C          -8.8051   63.4455   78.6447 C.3     1  UNL1        0.0188
     30 C          -7.6793   63.7655   77.6735 C.3     1  UNL1        0.0188
     31 C          -7.5367   62.5039   76.8383 C.3     1  UNL1        0.0722
@<TRIPOS>BOND
     1    19    20    1
     2    20    18    1
     3    20    21    1
     4    18    17    1
     5    17     1    1
     6     1     2    1
     7     1    12    1
     8     2    14    1
     9     2     3    2
    10    14    15    1
    11    15    16    1
    12     3     4    1
    13     4     5    1
    14     5     6    1
    15     5    12    1
    16     6     7    1
    17     6     8    1
    18     6     9    1
    19     9    10    1
    20    10    11    1
    21    11    12    1
    22    12    13    1
    23    21    22    1
    24    22    23    2
    25    22    24    1
    26    24    25    1
    27    25    26    1
    28    26    27    1
    29    27    28    1
    30    27    31    1
    31    28    29    1
    32    29    30    1
    33    30    31    1
#	Name:			CHEMBL3311458
#	Creating user name:	trannguyen
#	Creation time:		Tue Feb  8 17:54:08 2022


#	Modifying user name:	trannguyen
#	Modification time:	Tue Feb  8 17:54:08 2022

@<TRIPOS>MOLECULE
CHEMBL3311458
 32 34 0 0 0
SMALL
GASTEIGER

@<TRIPOS>ATOM
      1 C          -0.2026   58.7527   77.3352 C.3     1  UNL1        0.0041
      2 C          -1.5810   58.3506   76.7087 C.3     1  UNL1        0.0203
      3 C          -1.7156   56.9190   76.1410 C.2     1  UNL1       -0.0198
      4 C          -2.9231   56.5197   75.6866 C.2     1  UNL1       -0.0322
      5 C          -4.2047   57.2793   75.8448 C.3     1  UNL1        0.0255
      6 C          -4.1081   58.5923   76.6540 C.3     1  UNL1        0.0046
      7 C          -5.4864   59.0697   77.2418 C.3     1  UNL1        0.0003
      8 C          -6.1405   58.0646   78.2123 C.3     1  UNL1        0.0000
      9 C          -6.5045   59.2990   76.0953 C.3     1  UNL1        0.0000
     10 C          -5.2908   60.4321   77.9460 C.3     1  UNL1        0.0000
     11 C          -4.1535   60.4351   78.9561 C.3     1  UNL1        0.0000
     12 C          -2.8223   60.0156   78.3222 C.3     1  UNL1        0.0003
     13 C          -2.8620   58.6241   77.6350 C.3     1  UNL1        0.0038
     14 C          -2.8938   57.5450   78.7511 C.3     1  UNL1        0.0003
     15 C          -0.5683   55.9376   76.2552 C.3     1  UNL1        0.1590
     16 O          -0.6231   54.9105   75.2694 O.3     1  UNL1       -0.3776
     17 H          -1.4219   54.3903   75.4537 H       1  UNL1        0.2109
     18 C           0.7974   59.3865   76.3327 C.3     1  UNL1        0.0009
     19 C           2.5174   60.7675   77.5810 C.3     1  UNL1        0.0006
     20 C           1.2715   60.8195   76.6948 C.3     1  UNL1        0.0111
     21 C           0.1447   61.5672   77.4378 C.3     1  UNL1        0.1096
     22 C          -0.5050   62.6659   76.6125 C.2     1  UNL1        0.3170
     23 O          -0.9085   62.5310   75.4780 O.2     1  UNL1       -0.2501
     24 O          -0.6387   63.7891   77.3934 O.3     1  UNL1       -0.4484
     25 C          -1.2508   63.5761   78.6785 C.3     1  UNL1        0.2099
     26 C          -2.7549   63.8317   78.6454 C.3     1  UNL1        0.0647
     27 C          -3.1632   64.9394   77.6668 C.3     1  UNL1        0.0759
     28 N          -4.6156   65.0779   77.5586 N.3     1  UNL1       -0.2726
     29 C          -5.0988   66.4078   77.9558 C.3     1  UNL1        0.0721
     30 C          -6.5470   66.1974   78.3769 C.3     1  UNL1        0.0188
     31 C          -6.7679   64.6964   78.2801 C.3     1  UNL1        0.0188
     32 C          -5.3649   64.1218   78.3727 C.3     1  UNL1        0.0721
@<TRIPOS>BOND
     1    19    20    1
     2    20    18    1
     3    20    21    1
     4    18     1    1
     5     1     2    1
     6     2     3    1
     7     2    13    1
     8     3    15    1
     9     3     4    2
    10    15    16    1
    11    16    17    1
    12     4     5    1
    13     5     6    1
    14     6     7    1
    15     6    13    1
    16     7     8    1
    17     7     9    1
    18     7    10    1
    19    10    11    1
    20    11    12    1
    21    12    13    1
    22    13    14    1
    23    21    22    1
    24    22    23    2
    25    22    24    1
    26    24    25    1
    27    25    26    1
    28    26    27    1
    29    27    28    1
    30    28    29    1
    31    28    32    1
    32    29    30    1
    33    30    31    1
    34    31    32    1
#	Name:			CHEMBL3311539
#	Creating user name:	trannguyen
#	Creation time:		Tue Feb  8 17:54:08 2022


#	Modifying user name:	trannguyen
#	Modification time:	Tue Feb  8 17:54:08 2022

@<TRIPOS>MOLECULE
CHEMBL3311539
 33 35 0 0 0
SMALL
GASTEIGER

@<TRIPOS>ATOM
      1 C          -8.4853   74.6936   72.8117 C.3     1  UNL1        0.0041
      2 C          -7.9638   75.4130   74.1866 C.3     1  UNL1        0.0203
      3 C          -8.2352   76.9405   74.2776 C.2     1  UNL1       -0.0198
      4 C          -9.1809   77.4008   75.1226 C.2     1  UNL1       -0.0322
      5 C          -9.6400   76.6654   76.3428 C.3     1  UNL1        0.0255
      6 C          -8.5788   75.6318   76.7537 C.3     1  UNL1        0.0046
      7 C          -8.8025   75.0111   78.1881 C.3     1  UNL1        0.0003
      8 C         -10.2547   74.5633   78.4677 C.3     1  UNL1        0.0000
      9 C          -8.5120   76.0941   79.2748 C.3     1  UNL1        0.0000
     10 C          -7.7958   73.8544   78.4482 C.3     1  UNL1        0.0000
     11 C          -7.4446   72.9593   77.2593 C.3     1  UNL1        0.0000
     12 C          -7.1744   73.7380   75.9751 C.3     1  UNL1        0.0003
     13 C          -8.3655   74.6296   75.5555 C.3     1  UNL1        0.0038
     14 C          -9.6259   73.7703   75.3507 C.3     1  UNL1        0.0003
     15 C          -7.3056   77.9542   73.5863 C.3     1  UNL1        0.1590
     16 O          -6.0760   78.1157   74.3159 O.3     1  UNL1       -0.3776
     17 H          -5.3335   78.1434   73.6872 H       1  UNL1        0.2109
     18 C          -9.7408   75.2645   72.0413 C.3     1  UNL1        0.0009
     19 C         -10.0407   77.6033   71.0575 C.3     1  UNL1        0.0006
     20 C          -9.6558   76.1447   70.7506 C.3     1  UNL1        0.0111
     21 C         -10.3578   75.7869   69.4125 C.3     1  UNL1        0.1096
     22 C          -9.4621   76.3076   68.3242 C.2     1  UNL1        0.3170
     23 O          -8.1901   76.0997   68.1507 O.2     1  UNL1       -0.2501
     24 O         -10.2423   76.8419   67.4234 O.3     1  UNL1       -0.4485
     25 C          -9.7226   77.4158   66.2236 C.3     1  UNL1        0.2085
     26 C          -9.6436   78.9229   66.3041 C.3     1  UNL1        0.0489
     27 C          -8.3059   79.5454   65.8340 C.3     1  UNL1        0.0212
     28 C          -7.5001   80.3461   66.8732 C.3     1  UNL1        0.0722
     29 N          -6.6230   79.6486   67.8252 N.3     1  UNL1       -0.2727
     30 C          -5.3014   80.2517   67.9735 C.3     1  UNL1        0.0721
     31 C          -4.8520   79.9649   69.4004 C.3     1  UNL1        0.0188
     32 C          -6.1297   79.8355   70.2043 C.3     1  UNL1        0.0188
     33 C          -7.1429   79.3023   69.1534 C.3     1  UNL1        0.0721
@<TRIPOS>BOND
     1    19    20    1
     2    20    18    1
     3    20    21    1
     4    18     1    1
     5     1     2    1
     6     2     3    1
     7     2    13    1
     8     3    15    1
     9     3     4    2
    10    15    16    1
    11    16    17    1
    12     4     5    1
    13     5     6    1
    14     6     7    1
    15     6    13    1
    16     7     8    1
    17     7     9    1
    18     7    10    1
    19    10    11    1
    20    11    12    1
    21    12    13    1
    22    13    14    1
    23    21    22    1
    24    22    23    2
    25    22    24    1
    26    24    25    1
    27    25    26    1
    28    26    27    1
    29    27    28    1
    30    28    29    1
    31    29    30    1
    32    29    33    1
    33    30    31    1
    34    31    32    1
    35    32    33    1
#	Name:			CHEMBL3311540
#	Creating user name:	trannguyen
#	Creation time:		Tue Feb  8 17:54:08 2022


#	Modifying user name:	trannguyen
#	Modification time:	Tue Feb  8 17:54:08 2022

@<TRIPOS>MOLECULE
CHEMBL3311540
 34 36 0 0 0
SMALL
GASTEIGER

@<TRIPOS>ATOM
      1 C          -6.0005   62.5553   78.9326 C.3     1  UNL1        0.0009
      2 C          -7.1362   64.7167   78.1105 C.3     1  UNL1        0.0006
      3 C          -6.5876   63.3401   77.7155 C.3     1  UNL1        0.0111
      4 C          -7.7453   62.5858   77.0077 C.3     1  UNL1        0.1096
      5 C          -7.4064   61.9992   75.6459 C.2     1  UNL1        0.3170
      6 O          -7.0495   62.6548   74.6883 O.2     1  UNL1       -0.2501
      7 O          -7.5417   60.6406   75.6838 O.3     1  UNL1       -0.4485
      8 C          -6.3332   59.8964   75.5004 C.3     1  UNL1        0.2084
      9 C          -5.6845   59.5503   76.8360 C.3     1  UNL1        0.0475
     10 C          -4.1783   59.3458   76.6534 C.3     1  UNL1        0.0053
     11 C          -3.8564   58.5286   75.4003 C.3     1  UNL1        0.0174
     12 C          -2.5995   57.6687   75.6070 C.3     1  UNL1        0.0721
     13 N          -2.8574   56.2271   75.5039 N.3     1  UNL1       -0.2727
     14 C          -1.6811   55.4565   75.0901 C.3     1  UNL1        0.0721
     15 C          -1.9027   54.0795   75.6827 C.3     1  UNL1        0.0188
     16 C          -2.5634   54.3768   77.0112 C.3     1  UNL1        0.0188
     17 C          -3.3354   55.6680   76.7782 C.3     1  UNL1        0.0721
     18 C          -4.5893   63.0100   79.3841 C.3     1  UNL1        0.0041
     19 C          -3.2945   62.6628   78.5533 C.3     1  UNL1        0.0203
     20 C          -2.5292   63.8128   77.8592 C.2     1  UNL1       -0.0198
     21 C          -1.2892   63.5839   77.3735 C.2     1  UNL1       -0.0322
     22 C          -0.5440   62.2824   77.4311 C.3     1  UNL1        0.0255
     23 C          -1.3017   61.1114   78.0949 C.3     1  UNL1        0.0046
     24 C          -0.3658   59.9043   78.4809 C.3     1  UNL1        0.0003
     25 C           0.7207   60.2231   79.5335 C.3     1  UNL1        0.0000
     26 C           0.3899   59.4004   77.2277 C.3     1  UNL1        0.0000
     27 C          -1.2614   58.7519   78.9900 C.3     1  UNL1        0.0000
     28 C          -2.1648   59.1659   80.1459 C.3     1  UNL1        0.0000
     29 C          -3.0506   60.3712   79.7982 C.3     1  UNL1        0.0003
     30 C          -2.2876   61.6033   79.2248 C.3     1  UNL1        0.0038
     31 C          -1.5190   62.2731   80.3831 C.3     1  UNL1        0.0003
     32 C          -3.1548   65.1685   77.6075 C.3     1  UNL1        0.1590
     33 O          -3.8151   65.1489   76.3515 O.3     1  UNL1       -0.3776
     34 H          -4.0201   66.0719   76.1274 H       1  UNL1        0.2109
@<TRIPOS>BOND
     1     2     3    1
     2     3     1    1
     3     3     4    1
     4     1    18    1
     5    18    19    1
     6    19    20    1
     7    19    30    1
     8    20    32    1
     9    20    21    2
    10    32    33    1
    11    33    34    1
    12    21    22    1
    13    22    23    1
    14    23    24    1
    15    23    30    1
    16    24    25    1
    17    24    26    1
    18    24    27    1
    19    27    28    1
    20    28    29    1
    21    29    30    1
    22    30    31    1
    23     4     5    1
    24     5     6    2
    25     5     7    1
    26     7     8    1
    27     8     9    1
    28     9    10    1
    29    10    11    1
    30    11    12    1
    31    12    13    1
    32    13    14    1
    33    13    17    1
    34    14    15    1
    35    15    16    1
    36    16    17    1
#	Name:			CHEMBL3311541
#	Creating user name:	trannguyen
#	Creation time:		Tue Feb  8 17:54:08 2022


#	Modifying user name:	trannguyen
#	Modification time:	Tue Feb  8 17:54:08 2022

@<TRIPOS>MOLECULE
CHEMBL3311541
 35 37 0 0 0
SMALL
GASTEIGER

@<TRIPOS>ATOM
      1 C           5.5104   66.8466   64.3449 C.3     1  UNL1        0.0009
      2 C           4.1054   66.4850   62.1963 C.3     1  UNL1        0.0006
      3 C           4.6689   65.8659   63.4690 C.3     1  UNL1        0.0111
      4 C           3.6282   64.9984   64.2145 C.3     1  UNL1        0.1096
      5 C           4.0214   63.6013   64.6218 C.2     1  UNL1        0.3170
      6 O           4.9380   62.9394   64.0934 O.2     1  UNL1       -0.2501
      7 O           3.2301   63.1169   65.6010 O.3     1  UNL1       -0.4485
      8 C           3.6961   63.3634   66.9464 C.3     1  UNL1        0.2084
      9 C           3.7637   62.0356   67.6994 C.3     1  UNL1        0.0474
     10 C           2.5107   61.6739   68.5089 C.3     1  UNL1        0.0039
     11 C           2.6490   60.3565   69.2765 C.3     1  UNL1        0.0016
     12 C           2.3249   60.4377   70.7762 C.3     1  UNL1        0.0173
     13 C           2.1638   59.1133   71.5533 C.3     1  UNL1        0.0721
     14 N           2.5918   59.2210   72.9503 N.3     1  UNL1       -0.2727
     15 C           1.5625   59.0948   73.9863 C.3     1  UNL1        0.0721
     16 C           2.0534   59.9751   75.1395 C.3     1  UNL1        0.0188
     17 C           3.5333   60.1262   74.8504 C.3     1  UNL1        0.0188
     18 C           3.5279   60.2679   73.3397 C.3     1  UNL1        0.0721
     19 C           5.6953   68.3143   63.8926 C.3     1  UNL1        0.0041
     20 C           4.9938   69.5207   64.6517 C.3     1  UNL1        0.0203
     21 C           3.4676   69.1960   64.7152 C.2     1  UNL1       -0.0198
     22 C           2.8519   68.8810   65.8723 C.2     1  UNL1       -0.0322
     23 C           3.4723   69.0575   67.2114 C.3     1  UNL1        0.0255
     24 C           4.4056   70.2685   67.1321 C.3     1  UNL1        0.0046
     25 C           4.7679   70.8921   68.5298 C.3     1  UNL1        0.0003
     26 C           5.3378   69.9104   69.5789 C.3     1  UNL1        0.0000
     27 C           3.4757   71.4437   69.2087 C.3     1  UNL1        0.0000
     28 C           5.6902   72.1167   68.3027 C.3     1  UNL1        0.0000
     29 C           6.7909   71.9584   67.2532 C.3     1  UNL1        0.0000
     30 C           6.3082   71.3547   65.9288 C.3     1  UNL1        0.0003
     31 C           5.5801   69.9914   66.1026 C.3     1  UNL1        0.0038
     32 C           6.6036   68.9963   66.6708 C.3     1  UNL1        0.0003
     33 C           2.6299   69.3299   63.4581 C.3     1  UNL1        0.1590
     34 O           1.7794   68.1849   63.3220 O.3     1  UNL1       -0.3776
     35 H           1.4446   68.1654   62.4125 H       1  UNL1        0.2109
@<TRIPOS>BOND
     1     2     3    1
     2     3     1    1
     3     3     4    1
     4     1    19    1
     5    19    20    1
     6    20    21    1
     7    20    31    1
     8    21    33    1
     9    21    22    2
    10    33    34    1
    11    34    35    1
    12    22    23    1
    13    23    24    1
    14    24    25    1
    15    24    31    1
    16    25    26    1
    17    25    27    1
    18    25    28    1
    19    28    29    1
    20    29    30    1
    21    30    31    1
    22    31    32    1
    23     4     5    1
    24     5     6    2
    25     5     7    1
    26     7     8    1
    27     8     9    1
    28     9    10    1
    29    10    11    1
    30    11    12    1
    31    12    13    1
    32    13    14    1
    33    14    15    1
    34    14    18    1
    35    15    16    1
    36    16    17    1
    37    17    18    1
#	Name:			CHEMBL3311542
#	Creating user name:	trannguyen
#	Creation time:		Tue Feb  8 17:54:08 2022


#	Modifying user name:	trannguyen
#	Modification time:	Tue Feb  8 17:54:08 2022

@<TRIPOS>MOLECULE
CHEMBL3311542
 31 32 0 0 0
SMALL
GASTEIGER

@<TRIPOS>ATOM
      1 C          -8.8098   79.1301   72.0559 C.3     1  UNL1        0.0203
      2 C          -7.6010   78.1687   72.0379 C.2     1  UNL1       -0.0198
      3 C          -6.7634   78.1125   70.9841 C.2     1  UNL1       -0.0322
      4 C          -6.8319   78.9460   69.7551 C.3     1  UNL1        0.0255
      5 C          -7.9629   79.9847   69.7318 C.3     1  UNL1        0.0046
      6 C          -8.1848   80.5874   68.2868 C.3     1  UNL1        0.0003
      7 C          -8.5420   79.5705   67.1742 C.3     1  UNL1        0.0000
      8 C          -6.8712   81.2629   67.8090 C.3     1  UNL1        0.0000
      9 C          -9.2733   81.6821   68.3570 C.3     1  UNL1        0.0000
     10 C         -10.5386   81.2529   69.0907 C.3     1  UNL1        0.0000
     11 C         -10.2576   80.6992   70.4946 C.3     1  UNL1        0.0003
     12 C          -9.2432   79.5146   70.5238 C.3     1  UNL1        0.0038
     13 C          -9.9176   78.2876   69.8657 C.3     1  UNL1        0.0003
     14 C          -7.2295   77.3117   73.2149 C.3     1  UNL1        0.1590
     15 O          -7.5870   75.9718   72.9294 O.3     1  UNL1       -0.3776
     16 H          -7.8578   75.5577   73.7645 H       1  UNL1        0.2109
     17 C         -10.0617   78.6941   72.9171 C.3     1  UNL1        0.0041
     18 C          -9.9146   78.5107   74.4461 C.3     1  UNL1        0.0009
     19 C          -9.8042   79.8430   75.2511 C.3     1  UNL1        0.0111
     20 C         -10.0344   81.0863   74.3832 C.3     1  UNL1        0.0006
     21 C          -8.4502   79.8742   75.9769 C.3     1  UNL1        0.1096
     22 C          -8.4854   80.6527   77.2845 C.2     1  UNL1        0.3170
     23 O          -9.4519   80.8415   77.9681 O.2     1  UNL1       -0.2501
     24 O          -7.2181   81.1046   77.5400 O.3     1  UNL1       -0.4470
     25 C          -6.8882   81.3970   78.9030 C.3     1  UNL1        0.2257
     26 C          -5.4153   81.0841   79.2501 C.3     1  UNL1        0.1201
     27 N          -5.1126   79.7932   79.9165 N.3     1  UNL1       -0.2696
     28 C          -7.0617   78.1607   80.3890 C.3     1  UNL1        0.0188
     29 C          -6.0055   78.7201   79.4319 C.3     1  UNL1        0.0722
     30 C          -3.6880   79.4388   79.9202 C.3     1  UNL1        0.0722
     31 C          -3.3601   78.0530   80.4734 C.3     1  UNL1        0.0188
@<TRIPOS>BOND
     1    28    29    1
     2    29    27    1
     3    27    30    1
     4    27    26    1
     5    30    31    1
     6    26    25    1
     7    25    24    1
     8    24    22    1
     9    22    23    2
    10    22    21    1
    11    21    19    1
    12    19    20    1
    13    19    18    1
    14    18    17    1
    15    17     1    1
    16     1     2    1
    17     1    12    1
    18     2    14    1
    19     2     3    2
    20    14    15    1
    21    15    16    1
    22     3     4    1
    23     4     5    1
    24     5     6    1
    25     5    12    1
    26     6     7    1
    27     6     8    1
    28     6     9    1
    29     9    10    1
    30    10    11    1
    31    11    12    1
    32    12    13    1
#	Name:			CHEMBL3311543
#	Creating user name:	trannguyen
#	Creation time:		Tue Feb  8 17:54:08 2022


#	Modifying user name:	trannguyen
#	Modification time:	Tue Feb  8 17:54:08 2022

@<TRIPOS>MOLECULE
CHEMBL3311543
 32 33 0 0 0
SMALL
GASTEIGER

@<TRIPOS>ATOM
      1 C           2.4754   66.4603   64.7052 C.3     1  UNL1        0.0041
      2 C           3.7942   67.2850   64.6494 C.3     1  UNL1        0.0203
      3 C           4.4569   67.5234   63.2759 C.2     1  UNL1       -0.0198
      4 C           5.6137   68.2187   63.2697 C.2     1  UNL1       -0.0322
      5 C           6.2284   68.8760   64.4695 C.3     1  UNL1        0.0255
      6 C           5.3506   68.9283   65.7450 C.3     1  UNL1        0.0046
      7 C           5.7147   70.1082   66.7170 C.3     1  UNL1        0.0003
      8 C           5.6580   71.5022   66.0588 C.3     1  UNL1        0.0000
      9 C           7.1697   69.9310   67.2288 C.3     1  UNL1        0.0000
     10 C           4.7931   70.0683   67.9607 C.3     1  UNL1        0.0000
     11 C           3.3137   69.9084   67.6367 C.3     1  UNL1        0.0000
     12 C           3.0500   68.6602   66.7822 C.3     1  UNL1        0.0003
     13 C           3.8162   68.6814   65.4358 C.3     1  UNL1        0.0038
     14 C           3.1599   69.7705   64.5412 C.3     1  UNL1        0.0003
     15 C           3.7624   67.1442   61.9851 C.3     1  UNL1        0.1590
     16 O           4.0207   68.0822   60.9425 O.3     1  UNL1       -0.3776
     17 H           4.9665   68.0273   60.7338 H       1  UNL1        0.2109
     18 C           2.7067   64.9666   64.3749 C.3     1  UNL1        0.0009
     19 C           4.0136   64.3432   64.9147 C.3     1  UNL1        0.0111
     20 C           4.9943   64.0605   63.7787 C.3     1  UNL1        0.0006
     21 C           3.6508   63.0572   65.6650 C.3     1  UNL1        0.1096
     22 C           3.5486   63.1854   67.1692 C.2     1  UNL1        0.3170
     23 O           3.5157   64.2408   67.7584 O.2     1  UNL1       -0.2501
     24 O           3.6410   61.9491   67.7488 O.3     1  UNL1       -0.4484
     25 C           2.4715   61.5510   68.4849 C.3     1  UNL1        0.2099
     26 C           2.8687   60.4054   69.4244 C.3     1  UNL1        0.0647
     27 C           2.3251   60.6412   70.8466 C.3     1  UNL1        0.0759
     28 N           3.0987   60.0289   71.9521 N.3     1  UNL1       -0.2726
     29 C           3.2302   60.3616   74.4853 C.3     1  UNL1        0.0188
     30 C           3.1994   60.9770   73.0841 C.3     1  UNL1        0.0721
     31 C           2.5561   58.7140   72.3379 C.3     1  UNL1        0.0721
     32 C           1.0476   58.6391   72.5693 C.3     1  UNL1        0.0188
@<TRIPOS>BOND
     1    29    30    1
     2    30    28    1
     3    28    31    1
     4    28    27    1
     5    31    32    1
     6    27    26    1
     7    26    25    1
     8    25    24    1
     9    24    22    1
    10    22    23    2
    11    22    21    1
    12    21    19    1
    13    19    20    1
    14    19    18    1
    15    18     1    1
    16     1     2    1
    17     2     3    1
    18     2    13    1
    19     3    15    1
    20     3     4    2
    21    15    16    1
    22    16    17    1
    23     4     5    1
    24     5     6    1
    25     6     7    1
    26     6    13    1
    27     7     8    1
    28     7     9    1
    29     7    10    1
    30    10    11    1
    31    11    12    1
    32    12    13    1
    33    13    14    1
#	Name:			CHEMBL3311544
#	Creating user name:	trannguyen
#	Creation time:		Tue Feb  8 17:54:08 2022


#	Modifying user name:	trannguyen
#	Modification time:	Tue Feb  8 17:54:08 2022

@<TRIPOS>MOLECULE
CHEMBL3311544
 33 34 0 0 0
SMALL
GASTEIGER

@<TRIPOS>ATOM
      1 C           3.0397   63.8740   66.3540 C.3     1  UNL1        0.0041
      2 C           3.9086   64.8776   65.4813 C.3     1  UNL1        0.0203
      3 C           4.5282   64.3970   64.1511 C.2     1  UNL1       -0.0198
      4 C           5.0324   65.3129   63.2923 C.2     1  UNL1       -0.0322
      5 C           4.9674   66.8078   63.4401 C.3     1  UNL1        0.0255
      6 C           4.1729   67.3204   64.6609 C.3     1  UNL1        0.0046
      7 C           3.6003   68.7927   64.4996 C.3     1  UNL1        0.0003
      8 C           2.5871   68.9891   63.3478 C.3     1  UNL1        0.0000
      9 C           4.7527   69.7881   64.2297 C.3     1  UNL1        0.0000
     10 C           2.9222   69.2261   65.8233 C.3     1  UNL1        0.0000
     11 C           1.9081   68.2173   66.3406 C.3     1  UNL1        0.0000
     12 C           2.5141   66.8253   66.4796 C.3     1  UNL1        0.0003
     13 C           3.1306   66.2519   65.1773 C.3     1  UNL1        0.0038
     14 C           2.0432   65.9675   64.0996 C.3     1  UNL1        0.0003
     15 C           4.4511   62.9371   63.7704 C.3     1  UNL1        0.1590
     16 O           5.7346   62.3559   63.5689 O.3     1  UNL1       -0.3776
     17 H           6.1812   62.4121   64.4309 H       1  UNL1        0.2109
     18 C           3.7388   62.6029   66.8844 C.3     1  UNL1        0.0009
     19 C           3.4966   62.1954   68.3662 C.3     1  UNL1        0.0111
     20 C           4.7383   61.6215   69.0631 C.3     1  UNL1        0.0006
     21 C           2.3137   61.2400   68.5627 C.3     1  UNL1        0.1096
     22 C           2.5738   60.1806   69.5956 C.2     1  UNL1        0.3170
     23 O           2.9036   59.0593   69.3171 O.2     1  UNL1       -0.2501
     24 O           2.3594   60.6865   70.8489 O.3     1  UNL1       -0.4485
     25 C           1.9301   59.6773   71.8088 C.3     1  UNL1        0.2085
     26 C           3.1297   59.2373   72.6457 C.3     1  UNL1        0.0489
     27 C           3.1217   59.7918   74.0699 C.3     1  UNL1        0.0212
     28 C           1.8872   59.3584   74.8900 C.3     1  UNL1        0.0722
     29 N           2.1614   59.2418   76.3293 N.3     1  UNL1       -0.2727
     30 C           3.2013   60.5940   78.2432 C.3     1  UNL1        0.0188
     31 C           2.2799   60.5319   77.0321 C.3     1  UNL1        0.0721
     32 C           1.1847   58.3805   77.0287 C.3     1  UNL1        0.0721
     33 C          -0.1034   58.1229   76.2482 C.3     1  UNL1        0.0188
@<TRIPOS>BOND
     1    30    31    1
     2    31    29    1
     3    29    32    1
     4    29    28    1
     5    32    33    1
     6    28    27    1
     7    27    26    1
     8    26    25    1
     9    25    24    1
    10    24    22    1
    11    22    23    2
    12    22    21    1
    13    21    19    1
    14    19    20    1
    15    19    18    1
    16    18     1    1
    17     1     2    1
    18     2     3    1
    19     2    13    1
    20     3    15    1
    21     3     4    2
    22    15    16    1
    23    16    17    1
    24     4     5    1
    25     5     6    1
    26     6     7    1
    27     6    13    1
    28     7     8    1
    29     7     9    1
    30     7    10    1
    31    10    11    1
    32    11    12    1
    33    12    13    1
    34    13    14    1
#	Name:			CHEMBL3311545
#	Creating user name:	trannguyen
#	Creation time:		Tue Feb  8 17:54:08 2022


#	Modifying user name:	trannguyen
#	Modification time:	Tue Feb  8 17:54:08 2022

@<TRIPOS>MOLECULE
CHEMBL3311545
 34 35 0 0 0
SMALL
GASTEIGER

@<TRIPOS>ATOM
      1 C           2.8381   65.0893   64.8361 C.3     1  UNL1        0.0009
      2 C           4.1003   64.2735   65.1835 C.3     1  UNL1        0.0111
      3 C           4.9192   63.9589   63.9431 C.3     1  UNL1        0.0006
      4 C           3.6834   62.9369   65.8388 C.3     1  UNL1        0.1096
      5 C           3.6246   62.9981   67.3426 C.2     1  UNL1        0.3170
      6 O           3.6313   64.0484   67.9840 O.2     1  UNL1       -0.2501
      7 O           3.5539   61.7553   67.8734 O.3     1  UNL1       -0.4485
      8 C           2.3291   61.4409   68.5608 C.3     1  UNL1        0.2084
      9 C           2.5831   60.2372   69.4623 C.3     1  UNL1        0.0475
     10 C           2.5419   60.5918   70.9479 C.3     1  UNL1        0.0053
     11 C           2.1901   59.3507   71.7768 C.3     1  UNL1        0.0174
     12 C           2.8815   59.3847   73.1464 C.3     1  UNL1        0.0721
     13 N           1.9994   59.7235   74.2769 N.3     1  UNL1       -0.2727
     14 C           1.3593   58.3974   76.3555 C.3     1  UNL1        0.0188
     15 C           1.3254   58.5359   74.8366 C.3     1  UNL1        0.0721
     16 C           2.6611   60.4909   75.3508 C.3     1  UNL1        0.0721
     17 C           1.7639   61.4106   76.1805 C.3     1  UNL1        0.0188
     18 C           3.0351   66.4345   64.1357 C.3     1  UNL1        0.0041
     19 C           3.8553   67.5170   64.9157 C.3     1  UNL1        0.0203
     20 C           4.7508   68.3768   63.9892 C.2     1  UNL1       -0.0198
     21 C           5.3649   69.4757   64.4757 C.2     1  UNL1       -0.0322
     22 C           5.1868   70.0255   65.8590 C.3     1  UNL1        0.0255
     23 C           4.2347   69.2140   66.7662 C.3     1  UNL1        0.0046
     24 C           3.8082   69.9781   68.0752 C.3     1  UNL1        0.0003
     25 C           3.1164   71.3300   67.8124 C.3     1  UNL1        0.0000
     26 C           5.0545   70.2700   68.9449 C.3     1  UNL1        0.0000
     27 C           2.8874   69.0825   68.9323 C.3     1  UNL1        0.0000
     28 C           1.7112   68.5431   68.1549 C.3     1  UNL1        0.0000
     29 C           2.1697   67.7543   66.9394 C.3     1  UNL1        0.0003
     30 C           3.0903   68.4966   65.9404 C.3     1  UNL1        0.0038
     31 C           2.1921   69.4591   65.1193 C.3     1  UNL1        0.0003
     32 C           4.9241   68.0571   62.5216 C.3     1  UNL1        0.1590
     33 O           5.2170   69.2410   61.7896 O.3     1  UNL1       -0.3776
     34 H           4.7182   69.9732   62.1845 H       1  UNL1        0.2109
@<TRIPOS>BOND
     1    14    15    1
     2    15    13    1
     3    13    16    1
     4    13    12    1
     5    16    17    1
     6    12    11    1
     7    11    10    1
     8    10     9    1
     9     9     8    1
    10     8     7    1
    11     7     5    1
    12     5     6    2
    13     5     4    1
    14     4     2    1
    15     2     3    1
    16     2     1    1
    17     1    18    1
    18    18    19    1
    19    19    20    1
    20    19    30    1
    21    20    32    1
    22    20    21    2
    23    32    33    1
    24    33    34    1
    25    21    22    1
    26    22    23    1
    27    23    24    1
    28    23    30    1
    29    24    25    1
    30    24    26    1
    31    24    27    1
    32    27    28    1
    33    28    29    1
    34    29    30    1
    35    30    31    1
#	Name:			CHEMBL3311546
#	Creating user name:	trannguyen
#	Creation time:		Tue Feb  8 17:54:08 2022


#	Modifying user name:	trannguyen
#	Modification time:	Tue Feb  8 17:54:08 2022

@<TRIPOS>MOLECULE
CHEMBL3311546
 35 36 0 0 0
SMALL
GASTEIGER

@<TRIPOS>ATOM
      1 C          -2.8008   59.3094   77.0757 C.3     1  UNL1        0.0009
      2 C          -4.3224   59.6349   77.1342 C.3     1  UNL1        0.0111
      3 C          -4.9943   59.1493   78.4150 C.3     1  UNL1        0.0006
      4 C          -5.0209   59.0721   75.8831 C.3     1  UNL1        0.1096
      5 C          -6.4100   59.5901   75.6782 C.2     1  UNL1        0.3170
      6 O          -7.4089   58.9055   75.8899 O.2     1  UNL1       -0.2501
      7 O          -6.4291   60.8460   75.1835 O.3     1  UNL1       -0.4485
      8 C          -7.5696   61.6552   75.5107 C.3     1  UNL1        0.2084
      9 C          -7.2615   62.5954   76.6847 C.3     1  UNL1        0.0474
     10 C          -7.5786   62.0139   78.0744 C.3     1  UNL1        0.0039
     11 C          -6.6017   62.4570   79.1624 C.3     1  UNL1        0.0016
     12 C          -5.2836   62.9909   78.6170 C.3     1  UNL1        0.0173
     13 C          -5.1234   64.4704   79.0204 C.3     1  UNL1        0.0721
     14 N          -5.6431   65.4717   78.0722 N.3     1  UNL1       -0.2727
     15 C          -4.6021   66.4722   77.7589 C.3     1  UNL1        0.0721
     16 C          -3.1806   65.9183   77.7603 C.3     1  UNL1        0.0188
     17 C          -6.8040   67.5713   78.9076 C.3     1  UNL1        0.0188
     18 C          -6.9018   66.0970   78.5120 C.3     1  UNL1        0.0721
     19 C          -2.3405   58.1097   77.9232 C.3     1  UNL1        0.0041
     20 C          -1.9621   56.7902   77.1423 C.3     1  UNL1        0.0203
     21 C          -0.4711   56.5357   76.7766 C.2     1  UNL1       -0.0198
     22 C          -0.0661   55.2811   76.4900 C.2     1  UNL1       -0.0322
     23 C          -0.8859   54.0473   76.4965 C.3     1  UNL1        0.0255
     24 C          -2.3513   54.2413   76.8853 C.3     1  UNL1        0.0046
     25 C          -3.0201   52.8752   77.2846 C.3     1  UNL1        0.0003
     26 C          -2.4151   52.1799   78.5263 C.3     1  UNL1        0.0000
     27 C          -2.8661   51.8645   76.1160 C.3     1  UNL1        0.0000
     28 C          -4.5220   53.1187   77.5292 C.3     1  UNL1        0.0000
     29 C          -4.7988   54.2707   78.4917 C.3     1  UNL1        0.0000
     30 C          -4.1012   55.5833   78.1040 C.3     1  UNL1        0.0003
     31 C          -2.5676   55.4615   77.8603 C.3     1  UNL1        0.0038
     32 C          -1.8484   55.2596   79.2214 C.3     1  UNL1        0.0003
     33 C           0.5408   57.6649   76.7509 C.3     1  UNL1        0.1590
     34 O           1.8207   57.2677   76.2581 O.3     1  UNL1       -0.3776
     35 H           1.6733   56.7755   75.4313 H       1  UNL1        0.2109
@<TRIPOS>BOND
     1    17    18    1
     2    18    14    1
     3    14    15    1
     4    14    13    1
     5    15    16    1
     6    13    12    1
     7    12    11    1
     8    11    10    1
     9    10     9    1
    10     9     8    1
    11     8     7    1
    12     7     5    1
    13     5     6    2
    14     5     4    1
    15     4     2    1
    16     2     3    1
    17     2     1    1
    18     1    19    1
    19    19    20    1
    20    20    21    1
    21    20    31    1
    22    21    33    1
    23    21    22    2
    24    33    34    1
    25    34    35    1
    26    22    23    1
    27    23    24    1
    28    24    25    1
    29    24    31    1
    30    25    26    1
    31    25    27    1
    32    25    28    1
    33    28    29    1
    34    29    30    1
    35    30    31    1
    36    31    32    1
#	Name:			CHEMBL3311547
#	Creating user name:	trannguyen
#	Creation time:		Tue Feb  8 17:54:08 2022


#	Modifying user name:	trannguyen
#	Modification time:	Tue Feb  8 17:54:08 2022

@<TRIPOS>MOLECULE
CHEMBL3311547
 32 34 0 0 0
SMALL
GASTEIGER

@<TRIPOS>ATOM
      1 C          -3.4529   59.7702   78.7443 C.3     1  UNL1        0.0041
      2 C          -3.7427   58.4143   77.9662 C.3     1  UNL1        0.0203
      3 C          -4.3628   58.4804   76.5474 C.2     1  UNL1       -0.0198
      4 C          -4.0616   57.5865   75.5840 C.2     1  UNL1       -0.0322
      5 C          -3.1743   56.4050   75.7221 C.3     1  UNL1        0.0255
      6 C          -2.7277   56.1393   77.1628 C.3     1  UNL1        0.0046
      7 C          -1.6582   54.9819   77.2335 C.3     1  UNL1        0.0003
      8 C          -0.3718   55.2279   76.4118 C.3     1  UNL1        0.0000
      9 C          -2.2786   53.6711   76.6813 C.3     1  UNL1        0.0000
     10 C          -1.2762   54.7390   78.7076 C.3     1  UNL1        0.0000
     11 C          -0.8722   56.0168   79.4332 C.3     1  UNL1        0.0000
     12 C          -1.9633   57.0909   79.3728 C.3     1  UNL1        0.0003
     13 C          -2.4001   57.4815   77.9281 C.3     1  UNL1        0.0038
     14 C          -1.2575   58.2769   77.2327 C.3     1  UNL1        0.0003
     15 C          -5.4544   59.4497   76.1925 C.3     1  UNL1        0.1590
     16 O          -5.3471   59.7934   74.8224 O.3     1  UNL1       -0.3776
     17 H          -5.3248   58.9532   74.3322 H       1  UNL1        0.2109
     18 C          -2.9726   61.0303   77.9831 C.3     1  UNL1        0.0009
     19 C          -1.7712   62.0640   79.9667 C.3     1  UNL1        0.0006
     20 C          -1.6261   61.6310   78.4899 C.3     1  UNL1        0.0111
     21 C          -1.1451   62.8277   77.6485 C.3     1  UNL1        0.1096
     22 C          -0.7640   62.4866   76.2298 C.2     1  UNL1        0.3170
     23 O          -1.0929   63.1454   75.2614 O.2     1  UNL1       -0.2501
     24 O           0.0181   61.3644   76.1815 O.3     1  UNL1       -0.4470
     25 C           1.4304   61.5630   76.3821 C.3     1  UNL1        0.2257
     26 C           1.9566   60.5068   77.3669 C.3     1  UNL1        0.1201
     27 N           1.9441   60.8711   78.7919 N.3     1  UNL1       -0.2696
     28 C           1.2823   59.8830   79.6589 C.3     1  UNL1        0.0722
     29 C           2.0418   58.5687   79.8659 C.3     1  UNL1        0.0174
     30 C           3.5255   58.7585   80.1720 C.3     1  UNL1        0.0029
     31 C           4.1761   59.8474   79.3278 C.3     1  UNL1        0.0174
     32 C           3.3145   61.1115   79.2656 C.3     1  UNL1        0.0722
@<TRIPOS>BOND
     1    19    20    1
     2    20    18    1
     3    20    21    1
     4    18     1    1
     5     1     2    1
     6     2     3    1
     7     2    13    1
     8     3    15    1
     9     3     4    2
    10    15    16    1
    11    16    17    1
    12     4     5    1
    13     5     6    1
    14     6     7    1
    15     6    13    1
    16     7     8    1
    17     7     9    1
    18     7    10    1
    19    10    11    1
    20    11    12    1
    21    12    13    1
    22    13    14    1
    23    21    22    1
    24    22    23    2
    25    22    24    1
    26    24    25    1
    27    25    26    1
    28    26    27    1
    29    27    28    1
    30    27    32    1
    31    28    29    1
    32    29    30    1
    33    30    31    1
    34    31    32    1
#	Name:			CHEMBL3311548
#	Creating user name:	trannguyen
#	Creation time:		Tue Feb  8 17:54:08 2022


#	Modifying user name:	trannguyen
#	Modification time:	Tue Feb  8 17:54:08 2022

@<TRIPOS>MOLECULE
CHEMBL3311548
 33 35 0 0 0
SMALL
GASTEIGER

@<TRIPOS>ATOM
      1 C          -1.9717   57.6959   76.7560 C.3     1  UNL1        0.0041
      2 C          -0.9189   56.5435   76.6230 C.3     1  UNL1        0.0203
      3 C           0.4410   56.9072   77.2559 C.2     1  UNL1       -0.0198
      4 C           1.0768   56.0575   78.0871 C.2     1  UNL1       -0.0322
      5 C           0.6752   54.6291   78.2933 C.3     1  UNL1        0.0255
      6 C          -0.2260   54.1340   77.1430 C.3     1  UNL1        0.0046
      7 C          -0.4940   52.5864   77.1581 C.3     1  UNL1        0.0003
      8 C          -0.9786   52.0176   78.5070 C.3     1  UNL1        0.0000
      9 C           0.8336   51.8461   76.8412 C.3     1  UNL1        0.0000
     10 C          -1.4981   52.2187   76.0385 C.3     1  UNL1        0.0000
     11 C          -2.7467   53.0928   76.0142 C.3     1  UNL1        0.0000
     12 C          -2.3820   54.5678   75.8645 C.3     1  UNL1        0.0003
     13 C          -1.4664   55.0856   77.0067 C.3     1  UNL1        0.0038
     14 C          -2.2992   55.1170   78.3031 C.3     1  UNL1        0.0003
     15 C           1.0722   58.2069   76.7817 C.3     1  UNL1        0.1590
     16 O           1.8257   58.0558   75.5845 O.3     1  UNL1       -0.3776
     17 H           1.2177   57.7178   74.9073 H       1  UNL1        0.2109
     18 C          -2.6227   58.2188   75.4549 C.3     1  UNL1        0.0009
     19 C          -4.8112   59.3536   74.7968 C.3     1  UNL1        0.0006
     20 C          -4.1617   58.1302   75.4384 C.3     1  UNL1        0.0111
     21 C          -4.7173   57.8658   76.8597 C.3     1  UNL1        0.1096
     22 C          -6.1791   58.1053   77.0534 C.2     1  UNL1        0.3170
     23 O          -7.0647   57.3877   76.5676 O.2     1  UNL1       -0.2501
     24 O          -6.4022   59.2094   77.8688 O.3     1  UNL1       -0.4484
     25 C          -5.3065   59.5876   78.7129 C.3     1  UNL1        0.2099
     26 C          -4.8603   61.0255   78.4429 C.3     1  UNL1        0.0647
     27 C          -3.3835   61.2301   78.8128 C.3     1  UNL1        0.0759
     28 N          -2.6267   62.0263   77.8309 N.3     1  UNL1       -0.2726
     29 C          -2.2670   63.3784   78.2813 C.3     1  UNL1        0.0721
     30 C          -1.2006   63.4178   79.3786 C.3     1  UNL1        0.0174
     31 C           0.0276   62.5715   79.0487 C.3     1  UNL1        0.0029
     32 C          -0.3250   61.2178   78.4384 C.3     1  UNL1        0.0174
     33 C          -1.4147   61.3301   77.3698 C.3     1  UNL1        0.0721
@<TRIPOS>BOND
     1    19    20    1
     2    20    18    1
     3    20    21    1
     4    18     1    1
     5     1     2    1
     6     2     3    1
     7     2    13    1
     8     3    15    1
     9     3     4    2
    10    15    16    1
    11    16    17    1
    12     4     5    1
    13     5     6    1
    14     6     7    1
    15     6    13    1
    16     7     8    1
    17     7     9    1
    18     7    10    1
    19    10    11    1
    20    11    12    1
    21    12    13    1
    22    13    14    1
    23    21    22    1
    24    22    23    2
    25    22    24    1
    26    24    25    1
    27    25    26    1
    28    26    27    1
    29    27    28    1
    30    28    29    1
    31    28    33    1
    32    29    30    1
    33    30    31    1
    34    31    32    1
    35    32    33    1
#	Name:			CHEMBL3311549
#	Creating user name:	trannguyen
#	Creation time:		Tue Feb  8 17:54:08 2022


#	Modifying user name:	trannguyen
#	Modification time:	Tue Feb  8 17:54:08 2022

@<TRIPOS>MOLECULE
CHEMBL3311549
 34 36 0 0 0
SMALL
GASTEIGER

@<TRIPOS>ATOM
      1 C           3.6976   62.7910   66.9550 C.3     1  UNL1        0.0009
      2 C           4.8446   61.3912   68.7130 C.3     1  UNL1        0.0006
      3 C           3.6042   62.2249   68.3896 C.3     1  UNL1        0.0111
      4 C           2.3687   61.3152   68.5441 C.3     1  UNL1        0.1096
      5 C           2.5529   60.1996   69.5557 C.2     1  UNL1        0.3170
      6 O           2.8596   59.0613   69.2893 O.2     1  UNL1       -0.2501
      7 O           2.3359   60.7074   70.8166 O.3     1  UNL1       -0.4485
      8 C           1.9573   59.7336   71.7939 C.3     1  UNL1        0.2085
      9 C           3.1675   59.3401   72.6316 C.3     1  UNL1        0.0489
     10 C           3.0564   59.9373   74.0306 C.3     1  UNL1        0.0212
     11 C           1.9337   59.3008   74.8583 C.3     1  UNL1        0.0722
     12 N           2.1434   59.3939   76.3124 N.3     1  UNL1       -0.2727
     13 C           2.2188   60.7916   76.7692 C.3     1  UNL1        0.0721
     14 C           0.8713   61.5200   76.7456 C.3     1  UNL1        0.0174
     15 C          -0.1908   60.7434   77.5197 C.3     1  UNL1        0.0029
     16 C          -0.2424   59.2857   77.0746 C.3     1  UNL1        0.0174
     17 C           1.1509   58.6585   77.1096 C.3     1  UNL1        0.0721
     18 C           2.9868   64.1544   66.7180 C.3     1  UNL1        0.0041
     19 C           3.7457   65.0575   65.6958 C.3     1  UNL1        0.0203
     20 C           4.3297   64.3197   64.4863 C.2     1  UNL1       -0.0198
     21 C           5.0357   65.0063   63.5665 C.2     1  UNL1       -0.0322
     22 C           4.8908   66.4831   63.3680 C.3     1  UNL1        0.0255
     23 C           4.1255   67.2508   64.4676 C.3     1  UNL1        0.0046
     24 C           3.6992   68.6987   64.0263 C.3     1  UNL1        0.0003
     25 C           2.6814   68.7502   62.8671 C.3     1  UNL1        0.0000
     26 C           4.9367   69.4965   63.5413 C.3     1  UNL1        0.0000
     27 C           3.1318   69.4326   65.2616 C.3     1  UNL1        0.0000
     28 C           2.0348   68.6561   65.9828 C.3     1  UNL1        0.0000
     29 C           2.4658   67.2352   66.3795 C.3     1  UNL1        0.0003
     30 C           3.0151   66.3848   65.2001 C.3     1  UNL1        0.0038
     31 C           1.8234   65.9782   64.3047 C.3     1  UNL1        0.0003
     32 C           3.9176   62.9148   64.1117 C.3     1  UNL1        0.1590
     33 O           5.0320   62.2677   63.5003 O.3     1  UNL1       -0.3776
     34 H           5.3225   62.8439   62.7754 H       1  UNL1        0.2109
@<TRIPOS>BOND
     1     2     3    1
     2     3     1    1
     3     3     4    1
     4     1    18    1
     5    18    19    1
     6    19    20    1
     7    19    30    1
     8    20    32    1
     9    20    21    2
    10    32    33    1
    11    33    34    1
    12    21    22    1
    13    22    23    1
    14    23    24    1
    15    23    30    1
    16    24    25    1
    17    24    26    1
    18    24    27    1
    19    27    28    1
    20    28    29    1
    21    29    30    1
    22    30    31    1
    23     4     5    1
    24     5     6    2
    25     5     7    1
    26     7     8    1
    27     8     9    1
    28     9    10    1
    29    10    11    1
    30    11    12    1
    31    12    13    1
    32    12    17    1
    33    13    14    1
    34    14    15    1
    35    15    16    1
    36    16    17    1
#	Name:			CHEMBL3311550
#	Creating user name:	trannguyen
#	Creation time:		Tue Feb  8 17:54:08 2022


#	Modifying user name:	trannguyen
#	Modification time:	Tue Feb  8 17:54:08 2022

@<TRIPOS>MOLECULE
CHEMBL3311550
 35 37 0 0 0
SMALL
GASTEIGER

@<TRIPOS>ATOM
      1 C          -2.6002   59.2599   76.6417 C.3     1  UNL1        0.0009
      2 C          -4.0640   58.8120   78.6548 C.3     1  UNL1        0.0006
      3 C          -4.0257   59.3982   77.2339 C.3     1  UNL1        0.0111
      4 C          -5.1990   58.8217   76.4314 C.3     1  UNL1        0.1096
      5 C          -5.7737   59.7459   75.3865 C.2     1  UNL1        0.3170
      6 O          -5.2949   59.7297   74.2551 O.2     1  UNL1       -0.2501
      7 O          -6.7094   60.6001   75.7823 O.3     1  UNL1       -0.4485
      8 C          -7.7834   60.1167   76.6091 C.3     1  UNL1        0.2084
      9 C          -8.0862   61.1220   77.7119 C.3     1  UNL1        0.0475
     10 C          -7.1911   61.0030   78.9594 C.3     1  UNL1        0.0053
     11 C          -6.4826   62.3213   79.3038 C.3     1  UNL1        0.0174
     12 C          -5.6274   62.9146   78.1518 C.3     1  UNL1        0.0721
     13 N          -5.8523   64.3658   77.9521 N.3     1  UNL1       -0.2727
     14 C          -4.7199   65.1800   78.4081 C.3     1  UNL1        0.0721
     15 C          -4.8344   66.5525   77.7655 C.3     1  UNL1        0.0174
     16 C          -6.1707   67.2439   77.9985 C.3     1  UNL1        0.0029
     17 C          -7.3325   66.3551   78.4526 C.3     1  UNL1        0.0174
     18 C          -7.0467   64.8546   78.6654 C.3     1  UNL1        0.0721
     19 C          -2.3699   58.1573   75.5826 C.3     1  UNL1        0.0041
     20 C          -1.2966   57.0722   75.9766 C.3     1  UNL1        0.0203
     21 C          -0.2798   57.6394   76.9740 C.2     1  UNL1       -0.0198
     22 C          -0.2581   57.2731   78.2720 C.2     1  UNL1       -0.0322
     23 C          -1.0051   56.0674   78.7670 C.3     1  UNL1        0.0255
     24 C          -1.0125   55.0439   77.6124 C.3     1  UNL1        0.0046
     25 C          -1.2007   53.5369   78.0047 C.3     1  UNL1        0.0003
     26 C          -2.5488   53.1680   78.6457 C.3     1  UNL1        0.0000
     27 C          -0.1095   53.1127   79.0268 C.3     1  UNL1        0.0000
     28 C          -0.9705   52.6982   76.7226 C.3     1  UNL1        0.0000
     29 C          -1.8093   53.1494   75.5281 C.3     1  UNL1        0.0000
     30 C          -1.6606   54.6415   75.2081 C.3     1  UNL1        0.0003
     31 C          -1.8736   55.6095   76.4128 C.3     1  UNL1        0.0038
     32 C          -3.3849   55.6323   76.7632 C.3     1  UNL1        0.0003
     33 C           0.8818   58.4201   76.4142 C.3     1  UNL1        0.1590
     34 O           1.8236   57.4720   75.9213 O.3     1  UNL1       -0.3776
     35 H           2.4188   57.9516   75.3230 H       1  UNL1        0.2109
@<TRIPOS>BOND
     1     2     3    1
     2     3     1    1
     3     3     4    1
     4     1    19    1
     5    19    20    1
     6    20    21    1
     7    20    31    1
     8    21    33    1
     9    21    22    2
    10    33    34    1
    11    34    35    1
    12    22    23    1
    13    23    24    1
    14    24    25    1
    15    24    31    1
    16    25    26    1
    17    25    27    1
    18    25    28    1
    19    28    29    1
    20    29    30    1
    21    30    31    1
    22    31    32    1
    23     4     5    1
    24     5     6    2
    25     5     7    1
    26     7     8    1
    27     8     9    1
    28     9    10    1
    29    10    11    1
    30    11    12    1
    31    12    13    1
    32    13    14    1
    33    13    18    1
    34    14    15    1
    35    15    16    1
    36    16    17    1
    37    17    18    1
#	Name:			CHEMBL335133
#	Creating user name:	trannguyen
#	Creation time:		Tue Feb  8 17:54:08 2022


#	Modifying user name:	trannguyen
#	Modification time:	Tue Feb  8 17:54:08 2022

@<TRIPOS>MOLECULE
CHEMBL335133
 35 39 0 0 0
SMALL
GASTEIGER

@<TRIPOS>ATOM
      1 C           0.9442   60.8919   77.7643 C.3     1  UNL1        0.0147
      2 C           1.6362   60.6451   76.4109 C.3     1  UNL1        0.0013
      3 C           1.2072   59.2630   75.9080 C.3     1  UNL1        0.0000
      4 C           0.4587   58.5457   77.0439 C.3     1  UNL1        0.0000
      5 C          -1.0371   58.2439   76.7477 C.3     1  UNL1        0.0000
      6 C          -1.2500   57.4588   75.4404 C.3     1  UNL1        0.0004
      7 C          -2.4779   56.5622   75.3186 C.3     1  UNL1        0.0077
      8 C          -3.4633   56.6209   76.4810 C.3     1  UNL1        0.0635
      9 C          -4.4152   57.8395   76.4210 C.2     1  UNL1        0.1856
     10 O          -4.6708   58.4433   75.3781 O.2     1  UNL1       -0.2900
     11 C          -5.1209   58.2462   77.7007 C.2     1  UNL1        0.0813
     12 C          -4.8393   57.5495   78.8102 C.2     1  UNL1       -0.0086
     13 C          -3.8271   56.4617   78.9266 C.3     1  UNL1        0.0278
     14 C          -2.7291   56.5427   77.8410 C.3     1  UNL1        0.0110
     15 C          -1.8857   55.2570   77.9544 C.3     1  UNL1        0.0008
     16 C          -1.8404   57.8148   78.0085 C.3     1  UNL1        0.0007
     17 C          -1.0015   57.8727   79.2982 C.3     1  UNL1        0.0000
     18 C          -0.3392   59.2514   79.3961 C.3     1  UNL1        0.0000
     19 C           0.7225   59.4266   78.3009 C.3     1  UNL1        0.0012
     20 C           2.0758   58.9381   78.9233 C.3     1  UNL1        0.0000
     21 N          -6.0097   59.3105   77.6436 N.am    1  UNL1       -0.2784
     22 C          -5.6817   60.6555   77.8031 C.2     1  UNL1        0.2496
     23 O          -4.5437   61.0848   77.9397 O.2     1  UNL1       -0.2698
     24 H          -6.9658   59.0360   77.4457 H       1  UNL1        0.1552
     25 C          -6.7773   61.6672   77.8365 C.ar    1  UNL1        0.0537
     26 C          -6.3870   63.0191   77.9182 C.ar    1  UNL1        0.0045
     27 C          -7.3336   64.0340   78.0349 C.ar    1  UNL1        0.0001
     28 C          -8.6846   63.7084   78.0646 C.ar    1  UNL1        0.0000
     29 C          -9.0853   62.3746   77.9678 C.ar    1  UNL1        0.0001
     30 C          -8.1372   61.3521   77.8547 C.ar    1  UNL1        0.0045
     31 C          -0.4276   62.5410   76.2784 C.3     1  UNL1        0.0173
     32 C          -0.2214   61.9733   77.6900 C.3     1  UNL1        0.0576
     33 N          -0.0582   63.1449   78.6183 N.3     1  UNL1       -0.2716
     34 C          -1.3593   63.6394   79.1146 C.3     1  UNL1        0.0896
     35 C           0.7800   62.8717   79.7878 C.3     1  UNL1        0.0896
@<TRIPOS>BOND
     1    31    32    1
     2    32    33    1
     3    32     1    1
     4     1     2    1
     5     1    19    1
     6     2     3    1
     7     3     4    1
     8     4     5    1
     9     4    19    1
    10     5     6    1
    11     5    16    1
    12     6     7    1
    13     7     8    1
    14     8     9    1
    15     8    14    1
    16     9    11    1
    17     9    10    2
    18    11    12    2
    19    11    21    1
    20    21    22   am
    21    21    24    1
    22    22    23    2
    23    22    25    1
    24    25    26   ar
    25    25    30   ar
    26    26    27   ar
    27    27    28   ar
    28    28    29   ar
    29    29    30   ar
    30    12    13    1
    31    13    14    1
    32    14    16    1
    33    14    15    1
    34    16    17    1
    35    17    18    1
    36    18    19    1
    37    19    20    1
    38    33    34    1
    39    33    35    1
#	Name:			CHEMBL342537
#	Creating user name:	trannguyen
#	Creation time:		Tue Feb  8 17:54:08 2022


#	Modifying user name:	trannguyen
#	Modification time:	Tue Feb  8 17:54:08 2022

@<TRIPOS>MOLECULE
CHEMBL342537
 15 15 0 0 0
SMALL
GASTEIGER

@<TRIPOS>ATOM
      1 C           0.1098   61.5531   76.8012 C.ar    1  UNL1        0.0515
      2 C           1.4397   61.3612   76.4488 C.ar    1  UNL1        0.0148
      3 C           1.9212   60.0744   76.2478 C.ar    1  UNL1        0.0025
      4 C           1.0896   58.9731   76.4679 C.ar    1  UNL1        0.0133
      5 C          -0.2442   59.1419   76.8748 C.ar    1  UNL1        0.0356
      6 C          -0.7248   60.4488   77.0324 C.ar    1  UNL1        0.0279
      7 C          -1.3986   64.9506   76.2457 C.3     1  UNL1        0.0949
      8 C          -0.9315   63.5686   75.8917 C.2     1  UNL1        0.2266
      9 O          -1.0946   63.1109   74.7498 O.2     1  UNL1       -0.2748
     10 N          -0.3586   62.8724   76.9331 N.am    1  UNL1       -0.2839
     11 H           0.0141   63.4242   77.7254 H       1  UNL1        0.1549
     12 N          -1.1011   57.9295   77.2452 N.pl3   1  UNL1       -0.3512
     13 C          -1.3092   57.8393   78.7554 C.3     1  UNL1        0.0960
     14 C          -2.4810   58.0250   76.6086 C.3     1  UNL1        0.0960
     15 C          -0.3739   56.6880   76.7518 C.3     1  UNL1        0.0960
@<TRIPOS>BOND
     1     7     8    1
     2     8     9    2
     3     8    10   am
     4    10     1    1
     5    10    11    1
     6     1     2   ar
     7     1     6   ar
     8     2     3   ar
     9     3     4   ar
    10     4     5   ar
    11     5    12    1
    12     5     6   ar
    13    12    13    1
    14    12    14    1
    15    12    15    1
#	Name:			CHEMBL342564
#	Creating user name:	trannguyen
#	Creation time:		Tue Feb  8 17:54:08 2022


#	Modifying user name:	trannguyen
#	Modification time:	Tue Feb  8 17:54:08 2022

@<TRIPOS>MOLECULE
CHEMBL342564
 18 19 0 0 0
SMALL
GASTEIGER

@<TRIPOS>ATOM
      1 C          -8.4301   61.1493   79.1825 C.3     1  UNL1        0.1710
      2 N          -8.2816   60.9030   77.6782 N.4     1  UNL1        0.3120
      3 C          -9.6069   60.3859   77.1616 C.3     1  UNL1        0.1710
      4 C          -7.8932   62.2400   77.0056 C.3     1  UNL1        0.1419
      5 C          -7.4814   62.0157   75.5421 C.3     1  UNL1        0.2057
      6 O          -6.3904   61.0954   75.4056 O.3     1  UNL1       -0.3204
      7 C          -6.6607   59.8056   75.9618 C.3     1  UNL1        0.2563
      8 O          -7.6678   59.1849   75.1664 O.3     1  UNL1       -0.3562
      9 C          -7.1186   59.9092   77.4584 C.3     1  UNL1        0.1704
     10 H          -7.2149   58.9219   74.3442 H       1  UNL1        0.2133
     11 C          -5.3870   58.9583   75.9061 C.ar    1  UNL1        0.0341
     12 C          -4.3179   59.3120   75.0634 C.ar    1  UNL1        0.0013
     13 C          -3.1354   58.5647   75.0475 C.ar    1  UNL1        0.0101
     14 C          -2.9973   57.4497   75.8765 C.ar    1  UNL1        0.0684
     15 C          -4.0469   57.0879   76.7249 C.ar    1  UNL1        0.0101
     16 C          -5.2279   57.8378   76.7440 C.ar    1  UNL1        0.0013
     17 C          -1.7848   56.6828   75.8619 C.1     1  UNL1        0.1004
     18 N          -0.8075   56.0604   75.8424 N.1     1  UNL1       -0.1908
@<TRIPOS>UNITY_ATOM_ATTR
2 1
charge 1
@<TRIPOS>BOND
     1     1     2    1
     2     2     3    1
     3     2     4    1
     4     2     9    1
     5     4     5    1
     6     5     6    1
     7     6     7    1
     8     7     8    1
     9     7    11    1
    10     7     9    1
    11     8    10    1
    12    11    12   ar
    13    11    16   ar
    14    12    13   ar
    15    13    14   ar
    16    14    17    1
    17    14    15   ar
    18    17    18    3
    19    15    16   ar
#	Name:			CHEMBL343054
#	Creating user name:	trannguyen
#	Creation time:		Tue Feb  8 17:54:08 2022


#	Modifying user name:	trannguyen
#	Modification time:	Tue Feb  8 17:54:08 2022

@<TRIPOS>MOLECULE
CHEMBL343054
 38 41 0 0 0
SMALL
GASTEIGER

@<TRIPOS>ATOM
      1 C          -7.8367   74.2430   76.7437 C.3     1  UNL1        0.1390
      2 C          -8.2392   73.6963   75.3241 C.3     1  UNL1        0.1319
      3 O          -9.0209   72.5051   75.3831 O.3     1  UNL1       -0.3827
      4 C          -8.9654   74.7071   74.4174 C.3     1  UNL1        0.0312
      5 C          -8.1728   76.0343   74.1816 C.3     1  UNL1        0.0061
      6 C          -7.4436   75.8718   72.8214 C.3     1  UNL1        0.0002
      7 C          -9.1374   77.2779   74.1936 C.3     1  UNL1        0.0039
      8 C         -10.3485   77.2259   73.2173 C.3     1  UNL1        0.0006
      9 C         -10.1723   77.9197   71.8599 C.3     1  UNL1        0.0038
     10 C          -9.5266   79.3225   71.9616 C.3     1  UNL1        0.0164
     11 C         -10.5527   80.2795   72.5995 C.3     1  UNL1        0.0041
     12 C          -8.2768   79.1290   72.7949 C.2     1  UNL1       -0.0493
     13 C          -7.1538   79.1927   72.0710 C.2     1  UNL1       -0.0346
     14 C          -7.4537   79.2996   70.6193 C.3     1  UNL1        0.0270
     15 C          -8.9350   79.7713   70.5733 C.3     1  UNL1        0.0224
     16 C          -8.4308   78.6668   74.2106 C.3     1  UNL1        0.0180
     17 C          -7.1520   78.7748   75.0543 C.3     1  UNL1        0.0041
     18 C          -6.3411   77.5099   75.2495 C.3     1  UNL1        0.0040
     19 C          -7.1182   76.1936   75.3251 C.3     1  UNL1        0.0420
     20 C          -7.6878   75.8125   76.7376 C.3     1  UNL1        0.1888
     21 H          -8.8796   72.0339   74.5427 H       1  UNL1        0.2104
     22 C          -8.3135   72.5341   78.5305 C.2     1  UNL1        0.2417
     23 O          -7.3296   71.8520   78.2558 O.2     1  UNL1       -0.2705
     24 N          -8.6277   73.7178   77.8756 N.am    1  UNL1       -0.2974
     25 H          -9.5434   74.1172   78.0188 H       1  UNL1        0.1499
     26 C         -10.4879   70.1307   80.7597 C.3     1  UNL1        0.0305
     27 C          -9.5987   70.7877   79.7480 C.2     1  UNL1       -0.0256
     28 C          -9.2728   72.0921   79.6236 C.2     1  UNL1        0.0272
     29 C          -9.9003   73.1968   80.4392 C.3     1  UNL1        0.0354
     30 C          -8.9967   81.2811   70.1288 C.3     1  UNL1        0.0582
     31 C         -10.4341   81.8440   70.2298 C.3     1  UNL1        0.0174
     32 N          -8.3674   81.6072   68.8135 N.3     1  UNL1       -0.2716
     33 C          -8.6714   80.6349   67.7583 C.3     1  UNL1        0.0896
     34 C          -6.9028   81.7112   68.9281 C.3     1  UNL1        0.0896
     35 O          -8.9816   76.3838   77.0516 O.3     1  UNL1       -0.4504
     36 C          -9.0866   77.4646   77.8774 C.2     1  UNL1        0.3175
     37 C          -7.9201   77.5506   78.8083 C.3     1  UNL1        0.1212
     38 O          -9.9945   78.3047   77.8448 O.2     1  UNL1       -0.2501
@<TRIPOS>BOND
     1    26    27    1
     2    27    28    2
     3    28    29    1
     4    28    22    1
     5    22    23    2
     6    22    24   am
     7    24    25    1
     8     1     2    1
     9     1    20    1
    10     1    24    1
    11     2     3    1
    12     2     4    1
    13     3    21    1
    14     4     5    1
    15     5     6    1
    16     5     7    1
    17     5    19    1
    18     7     8    1
    19     7    16    1
    20     8     9    1
    21     9    10    1
    22    10    11    1
    23    10    12    1
    24    10    15    1
    25    12    13    2
    26    12    16    1
    27    13    14    1
    28    14    15    1
    29    15    30    1
    30    30    32    1
    31    30    31    1
    32    32    33    1
    33    32    34    1
    34    16    17    1
    35    17    18    1
    36    18    19    1
    37    19    20    1
    38    20    35    1
    39    35    36    1
    40    36    37    1
    41    36    38    2
#	Name:			CHEMBL343365
#	Creating user name:	trannguyen
#	Creation time:		Tue Feb  8 17:54:08 2022


#	Modifying user name:	trannguyen
#	Modification time:	Tue Feb  8 17:54:08 2022

@<TRIPOS>MOLECULE
CHEMBL343365
 36 40 0 0 0
SMALL
GASTEIGER

@<TRIPOS>ATOM
      1 C          -8.6524   79.5906   67.7015 C.3     1  UNL1        0.0147
      2 C          -9.8439   80.5522   67.8198 C.3     1  UNL1        0.0013
      3 C         -10.3942   80.4236   69.2423 C.3     1  UNL1        0.0000
      4 C          -9.7689   79.1729   69.8995 C.3     1  UNL1        0.0000
      5 C          -8.9232   79.5236   71.1353 C.3     1  UNL1        0.0000
      6 C          -9.6625   80.1089   72.3395 C.3     1  UNL1        0.0000
      7 C         -10.5375   79.1209   73.0717 C.3     1  UNL1        0.0001
      8 C          -9.9432   77.7261   73.3365 C.3     1  UNL1        0.0018
      9 C          -9.8380   77.3753   74.8489 C.3     1  UNL1        0.0220
     10 C          -8.5081   77.7055   75.5550 C.3     1  UNL1        0.0986
     11 C          -7.3126   77.6534   74.5806 C.3     1  UNL1        0.1283
     12 O          -6.0945   77.2431   75.2057 O.3     1  UNL1       -0.3828
     13 C          -7.5905   76.6991   73.4243 C.3     1  UNL1        0.0309
     14 C          -8.7014   77.2560   72.4834 C.3     1  UNL1        0.0024
     15 C          -9.1817   76.0428   71.6502 C.3     1  UNL1        0.0001
     16 C          -8.0220   78.3796   71.5996 C.3     1  UNL1        0.0001
     17 C          -7.1176   77.8848   70.4563 C.3     1  UNL1        0.0000
     18 C          -7.8210   77.5657   69.1490 C.3     1  UNL1        0.0000
     19 C          -9.0001   78.4668   68.7442 C.3     1  UNL1        0.0012
     20 C         -10.0255   77.5086   68.0388 C.3     1  UNL1        0.0000
     21 H          -6.2834   77.1307   76.1531 H       1  UNL1        0.2104
     22 N          -8.2739   76.8049   76.7054 N.am    1  UNL1       -0.3001
     23 C          -8.5214   75.4381   76.6318 C.2     1  UNL1        0.2459
     24 O          -8.9653   74.9118   75.6278 O.2     1  UNL1       -0.2701
     25 H          -7.6555   77.1477   77.4261 H       1  UNL1        0.1498
     26 C          -8.1962   74.6043   77.8465 C.ar    1  UNL1        0.0534
     27 C          -8.1322   73.2080   77.6939 C.ar    1  UNL1        0.0045
     28 C          -7.7486   72.3840   78.7601 C.ar    1  UNL1        0.0001
     29 C          -7.4639   72.9413   80.0032 C.ar    1  UNL1        0.0000
     30 C          -7.5915   74.3162   80.1877 C.ar    1  UNL1        0.0001
     31 C          -7.9526   75.1448   79.1167 C.ar    1  UNL1        0.0045
     32 C          -7.3449   81.8447   67.7500 C.3     1  UNL1        0.0173
     33 C          -7.2470   80.3165   67.6413 C.3     1  UNL1        0.0576
     34 N          -6.4705   79.9711   66.3970 N.3     1  UNL1       -0.2716
     35 C          -7.1215   80.4697   65.1730 C.3     1  UNL1        0.0896
     36 C          -5.0989   80.4950   66.4138 C.3     1  UNL1        0.0896
@<TRIPOS>BOND
     1    32    33    1
     2    33    34    1
     3    33     1    1
     4     1     2    1
     5     1    19    1
     6     2     3    1
     7     3     4    1
     8     4     5    1
     9     4    19    1
    10     5     6    1
    11     5    16    1
    12     6     7    1
    13     7     8    1
    14     8     9    1
    15     8    14    1
    16     9    10    1
    17    10    11    1
    18    10    22    1
    19    22    23   am
    20    22    25    1
    21    23    24    2
    22    23    26    1
    23    26    27   ar
    24    26    31   ar
    25    27    28   ar
    26    28    29   ar
    27    29    30   ar
    28    30    31   ar
    29    11    13    1
    30    11    12    1
    31    12    21    1
    32    13    14    1
    33    14    16    1
    34    14    15    1
    35    16    17    1
    36    17    18    1
    37    18    19    1
    38    19    20    1
    39    34    35    1
    40    34    36    1
#	Name:			CHEMBL343780
#	Creating user name:	trannguyen
#	Creation time:		Tue Feb  8 17:54:08 2022


#	Modifying user name:	trannguyen
#	Modification time:	Tue Feb  8 17:54:08 2022

@<TRIPOS>MOLECULE
CHEMBL343780
 33 36 0 0 0
SMALL
GASTEIGER

@<TRIPOS>ATOM
      1 C          -1.7162   56.1893   76.5652 C.3     1  UNL1        0.1336
      2 C          -3.1676   55.7358   76.3663 C.3     1  UNL1        0.0279
      3 C          -3.9904   56.8430   75.7167 C.3     1  UNL1        0.0063
      4 C          -4.0627   58.1505   76.5864 C.3     1  UNL1        0.0214
      5 C          -3.7327   59.3122   75.6227 C.3     1  UNL1        0.0045
      6 C          -2.9891   58.1267   77.6503 C.2     1  UNL1        0.0093
      7 C          -3.1552   58.3621   78.9590 C.2     1  UNL1       -0.0275
      8 C          -4.4679   58.6464   79.5992 C.3     1  UNL1        0.0258
      9 C          -5.6516   58.8704   78.6438 C.3     1  UNL1        0.0046
     10 C          -6.1904   60.3153   78.7007 C.3     1  UNL1        0.0004
     11 C          -5.1814   61.4184   78.4189 C.3     1  UNL1        0.0001
     12 C          -6.0402   62.6608   78.2291 C.3     1  UNL1        0.0013
     13 C          -7.4419   62.1864   77.7189 C.3     1  UNL1        0.0147
     14 C          -7.3579   60.6117   77.7307 C.3     1  UNL1        0.0013
     15 C          -8.6316   59.8703   78.1675 C.3     1  UNL1        0.0000
     16 C          -6.9707   60.1129   76.3093 C.3     1  UNL1        0.0001
     17 C          -6.6186   58.6271   76.2650 C.3     1  UNL1        0.0003
     18 C          -5.4990   58.2102   77.2414 C.3     1  UNL1        0.0041
     19 C          -1.6656   57.5491   77.2712 C.2     1  UNL1        0.1864
     20 O          -0.6139   58.0770   77.6301 O.2     1  UNL1       -0.2900
     21 C           0.2092   54.6912   77.0018 C.2     1  UNL1        0.2418
     22 O           0.7438   54.9434   75.9162 O.2     1  UNL1       -0.2705
     23 N          -0.9706   55.2535   77.3958 N.am    1  UNL1       -0.2962
     24 H          -1.2695   55.1726   78.3597 H       1  UNL1        0.1501
     25 C           2.1063   53.3922   80.1751 C.3     1  UNL1        0.0305
     26 C           1.4573   54.2042   79.1010 C.2     1  UNL1       -0.0256
     27 C           0.8660   53.7537   77.9740 C.2     1  UNL1        0.0272
     28 C           0.7381   52.3040   77.5945 C.3     1  UNL1        0.0354
     29 C          -8.6106   62.9488   78.4596 C.3     1  UNL1        0.0576
     30 C          -8.9072   64.3310   77.8320 C.3     1  UNL1        0.0173
     31 N          -8.4789   63.1234   79.9375 N.3     1  UNL1       -0.2716
     32 C          -8.4718   64.5438   80.3283 C.3     1  UNL1        0.0896
     33 C          -9.4895   62.4316   80.7374 C.3     1  UNL1        0.0896
@<TRIPOS>BOND
     1    25    26    1
     2    26    27    2
     3    27    28    1
     4    27    21    1
     5    21    22    2
     6    21    23   am
     7    23    24    1
     8     1     2    1
     9     1    19    1
    10     1    23    1
    11     2     3    1
    12     3     4    1
    13     4     6    1
    14     4    18    1
    15     4     5    1
    16     6     7    2
    17     6    19    1
    18     7     8    1
    19     8     9    1
    20     9    10    1
    21     9    18    1
    22    10    11    1
    23    10    14    1
    24    11    12    1
    25    12    13    1
    26    13    14    1
    27    13    29    1
    28    29    31    1
    29    29    30    1
    30    31    32    1
    31    31    33    1
    32    14    16    1
    33    14    15    1
    34    16    17    1
    35    17    18    1
    36    19    20    2
#	Name:			CHEMBL344593
#	Creating user name:	trannguyen
#	Creation time:		Tue Feb  8 17:54:08 2022


#	Modifying user name:	trannguyen
#	Modification time:	Tue Feb  8 17:54:08 2022

@<TRIPOS>MOLECULE
CHEMBL344593
 34 37 0 0 0
SMALL
GASTEIGER

@<TRIPOS>ATOM
      1 C          -0.3546   64.2295   55.7153 C.3     1  UNL1        0.0757
      2 C          -0.7518   64.1367   57.1952 C.3     1  UNL1        0.0198
      3 C          -2.0063   63.3009   57.4374 C.3     1  UNL1        0.0017
      4 C          -1.9488   61.8855   56.7994 C.3     1  UNL1        0.0001
      5 C          -0.9502   61.0623   57.6690 C.3     1  UNL1        0.0000
      6 C          -1.4849   61.9321   55.3296 C.3     1  UNL1        0.0016
      7 C          -1.2449   60.5161   54.7908 C.3     1  UNL1        0.0001
      8 C          -2.5350   59.6968   54.8637 C.3     1  UNL1        0.0000
      9 C          -3.3350   59.7497   56.1861 C.3     1  UNL1        0.0000
     10 C          -3.3614   61.1894   56.8023 C.3     1  UNL1        0.0000
     11 C          -4.5587   62.0264   56.2096 C.3     1  UNL1        0.0000
     12 C          -5.2970   61.4752   54.9654 C.3     1  UNL1        0.0000
     13 C          -5.6472   59.9679   54.9849 C.3     1  UNL1        0.0012
     14 C          -5.4400   59.3224   53.5773 C.3     1  UNL1        0.0000
     15 C          -7.0794   59.5571   55.4715 C.3     1  UNL1        0.0147
     16 C          -6.8391   58.0794   55.9602 C.3     1  UNL1        0.0013
     17 C          -5.3072   57.8926   56.1471 C.3     1  UNL1        0.0000
     18 C          -4.8207   59.3239   56.1235 C.3     1  UNL1        0.0000
     19 C          -0.2907   62.8500   55.0437 C.3     1  UNL1        0.0198
     20 C          -2.4390   65.5615   55.1442 C.2     1  UNL1        0.2485
     21 O          -3.0914   66.3464   54.4259 O.2     1  UNL1       -0.2699
     22 N          -1.0981   65.2596   54.9394 N.am    1  UNL1       -0.2760
     23 C          -0.5106   65.8682   53.7549 C.3     1  UNL1        0.1151
     24 C          -1.9886   66.4160   57.9959 C.3     1  UNL1        0.0265
     25 C          -2.9184   65.3008   57.5822 C.2     1  UNL1       -0.0397
     26 C          -3.0972   64.9261   56.3043 C.2     1  UNL1        0.0495
     27 C          -3.6265   64.5922   58.7351 C.3     1  UNL1        0.0185
     28 C          -2.6268   63.8773   59.6509 C.3     1  UNL1        0.0044
     29 C          -4.5184   65.5241   59.5647 C.3     1  UNL1        0.0044
     30 C          -8.2760   59.6774   54.4622 C.3     1  UNL1        0.0576
     31 C          -9.0234   58.3475   54.2782 C.3     1  UNL1        0.0173
     32 N          -7.8602   60.3054   53.1840 N.3     1  UNL1       -0.2716
     33 C          -8.6152   61.4999   52.8163 C.3     1  UNL1        0.0896
     34 C          -6.4214   60.5837   53.1444 C.3     1  UNL1        0.0896
@<TRIPOS>BOND
     1    24    25    1
     2    25    26    2
     3    25    27    1
     4    26    20    1
     5    20    21    2
     6    20    22   am
     7    22    23    1
     8     1     2    1
     9     1    19    1
    10     1    22    1
    11     2     3    1
    12     3     4    1
    13     4     5    1
    14     4     6    1
    15     4    10    1
    16     6     7    1
    17     6    19    1
    18     7     8    1
    19     8     9    1
    20     9    10    1
    21     9    18    1
    22    10    11    1
    23    11    12    1
    24    12    13    1
    25    13    14    1
    26    13    15    1
    27    13    18    1
    28    15    16    1
    29    30    31    1
    30    30    32    1
    31    30    15    1
    32    32    33    1
    33    32    34    1
    34    16    17    1
    35    17    18    1
    36    27    28    1
    37    27    29    1
#	Name:			CHEMBL345124
#	Creating user name:	trannguyen
#	Creation time:		Tue Feb  8 17:54:08 2022


#	Modifying user name:	trannguyen
#	Modification time:	Tue Feb  8 17:54:08 2022

@<TRIPOS>MOLECULE
CHEMBL345124
 35 38 0 0 0
SMALL
GASTEIGER

@<TRIPOS>ATOM
      1 N          -4.9471   58.2570   76.3894 N.pl3   1  UNL1       -0.2869
      2 C          -4.6917   56.9746   76.9748 C.2     1  UNL1        0.0515
      3 C          -5.7891   56.4277   77.8019 C.ar    1  UNL1        0.0146
      4 C          -5.6500   55.3363   78.6916 C.ar    1  UNL1        0.0153
      5 C          -6.6939   54.7433   79.3822 C.ar    1  UNL1        0.0416
      6 N          -6.4474   53.6028   80.1914 N.pl3   1  UNL1       -0.3570
      7 C          -7.9556   55.2655   79.2764 C.ar    1  UNL1        0.0141
      8 C          -8.1550   56.4103   78.5305 C.ar    1  UNL1        0.0010
      9 C          -7.0878   57.0343   77.7999 C.ar    1  UNL1       -0.0012
     10 C          -7.3019   58.2429   77.1101 C.2     1  UNL1       -0.0040
     11 C          -8.5721   58.9040   77.1458 C.3     1  UNL1        0.0548
     12 C          -8.7826   60.1181   76.5217 C.2     1  UNL1       -0.0073
     13 C          -7.7631   60.7224   75.8239 C.2     1  UNL1        0.0388
     14 N          -7.9876   61.9655   75.1756 N.pl3   1  UNL1       -0.3572
     15 C          -6.5113   60.1115   75.7610 C.2     1  UNL1        0.0283
     16 C          -6.2244   58.8580   76.4224 C.2     1  UNL1        0.0491
     17 H          -5.5011   53.1934   80.2426 H       1  UNL1        0.1424
     18 H          -7.2172   53.1271   80.6816 H       1  UNL1        0.1424
     19 H          -8.9075   62.4276   75.2297 H       1  UNL1        0.1423
     20 H          -7.2309   62.4320   74.6537 H       1  UNL1        0.1423
     21 C          -3.2483   56.1769   76.7651 C.ar    1  UNL1        0.0136
     22 C          -2.2160   55.9489   77.7680 C.ar    1  UNL1        0.0012
     23 C          -0.9582   55.4116   77.4725 C.ar    1  UNL1        0.0000
     24 C          -0.6451   54.9859   76.2109 C.ar    1  UNL1        0.0000
     25 C          -1.6199   55.0085   75.2520 C.ar    1  UNL1        0.0000
     26 C          -2.8734   55.5553   75.5197 C.ar    1  UNL1        0.0012
     27 C          -3.8424   59.0771   75.8054 C.3     1  UNL1        0.1016
     28 C          -2.9166   59.5898   76.9210 C.3     1  UNL1        0.0828
     29 C          -1.4168   59.2973   76.6872 C.3     1  UNL1        0.1105
     30 N          -0.2746   59.8002   77.3077 N.4     1  UNL1        0.3016
     31 C           0.8400   58.4670   76.3001 C.3     1  UNL1        0.1704
     32 C           0.2766   61.7330   77.0649 C.3     1  UNL1        0.0671
     33 C           1.2611   59.7983   76.4375 C.3     1  UNL1        0.1089
     34 C           0.0815   58.9440   78.5912 C.3     1  UNL1        0.1089
     35 C          -0.6018   58.8745   79.9660 C.3     1  UNL1        0.0671
@<TRIPOS>UNITY_ATOM_ATTR
30 1
charge 1
@<TRIPOS>BOND
     1    32    33    1
     2    33    30    1
     3    30    31    1
     4    30    34    1
     5    30    29    1
     6    34    35    1
     7    29    28    1
     8    28    27    1
     9    27     1    1
    10     1     2    1
    11     1    16    1
    12     2    21    1
    13     2     3    2
    14    21    22   ar
    15    21    26   ar
    16    22    23   ar
    17    23    24   ar
    18    24    25   ar
    19    25    26   ar
    20     3     4   ar
    21     3     9   ar
    22     4     5   ar
    23     5     6    1
    24     5     7   ar
    25     6    17    1
    26     6    18    1
    27     7     8   ar
    28     8     9   ar
    29     9    10    2
    30    10    11    1
    31    10    16    1
    32    11    12    1
    33    12    13    2
    34    13    14    1
    35    13    15    1
    36    14    19    1
    37    14    20    1
    38    15    16    2
#	Name:			CHEMBL356328
#	Creating user name:	trannguyen
#	Creation time:		Tue Feb  8 17:54:08 2022


#	Modifying user name:	trannguyen
#	Modification time:	Tue Feb  8 17:54:08 2022

@<TRIPOS>MOLECULE
CHEMBL356328
 7 6 0 0 0
SMALL
GASTEIGER

@<TRIPOS>ATOM
      1 N          -1.7665   53.5517   75.9812 N.4     1  UNL1        0.3140
      2 C          -3.0745   53.8586   76.7219 C.3     1  UNL1        0.1713
      3 C          -1.9840   52.3293   75.1231 C.3     1  UNL1        0.1713
      4 C          -0.6814   53.3193   77.0075 C.3     1  UNL1        0.1713
      5 C          -1.4353   54.7891   75.1184 C.3     1  UNL1        0.1366
      6 C          -1.8891   57.2525   75.3918 C.2     1  UNL1        0.0011
      7 C          -2.3115   55.9820   75.3922 C.2     1  UNL1        0.0343
@<TRIPOS>UNITY_ATOM_ATTR
1 1
charge 1
@<TRIPOS>BOND
     1     6     7    2
     2     7     5    1
     3     5     1    1
     4     1     2    1
     5     1     3    1
     6     1     4    1
#	Name:			CHEMBL356969
#	Creating user name:	trannguyen
#	Creation time:		Tue Feb  8 17:54:08 2022


#	Modifying user name:	trannguyen
#	Modification time:	Tue Feb  8 17:54:08 2022

@<TRIPOS>MOLECULE
CHEMBL356969
 14 14 0 0 0
SMALL
GASTEIGER

@<TRIPOS>ATOM
      1 C           5.3433   69.5319   64.8105 C.3     1  UNL1        0.1710
      2 N           4.3445   68.6114   64.0945 N.4     1  UNL1        0.3120
      3 C           2.9492   69.1131   64.4160 C.3     1  UNL1        0.1710
      4 C           4.6260   68.6943   62.5744 C.3     1  UNL1        0.1419
      5 C           3.8663   67.6012   61.8091 C.3     1  UNL1        0.2057
      6 O           4.1564   66.2808   62.2884 O.3     1  UNL1       -0.3174
      7 C           3.8503   66.1023   63.6821 C.3     1  UNL1        0.3259
      8 O           2.4260   66.2254   63.8539 O.3     1  UNL1       -0.3532
      9 C           4.5925   67.1523   64.5546 C.3     1  UNL1        0.1748
     10 H           2.0454   65.3872   63.5240 H       1  UNL1        0.2132
     11 C           4.3495   64.7145   64.1781 C.3     1  UNL1        0.4508
     12 F           4.1746   63.7489   63.2525 F       1  UNL1       -0.1652
     13 F           5.6722   64.7605   64.4699 F       1  UNL1       -0.1652
     14 F           3.7037   64.3458   65.3083 F       1  UNL1       -0.1652
@<TRIPOS>UNITY_ATOM_ATTR
2 1
charge 1
@<TRIPOS>BOND
     1     1     2    1
     2     2     3    1
     3     2     4    1
     4     2     9    1
     5     4     5    1
     6     5     6    1
     7     6     7    1
     8     7     8    1
     9     7    11    1
    10     7     9    1
    11     8    10    1
    12    11    12    1
    13    11    13    1
    14    11    14    1
#	Name:			CHEMBL356982
#	Creating user name:	trannguyen
#	Creation time:		Tue Feb  8 17:54:08 2022


#	Modifying user name:	trannguyen
#	Modification time:	Tue Feb  8 17:54:08 2022

@<TRIPOS>MOLECULE
CHEMBL356982
 21 22 0 0 0
SMALL
GASTEIGER

@<TRIPOS>ATOM
      1 C          -3.0057   58.9045   76.3278 C.ar    1  UNL1        0.0503
      2 C          -2.1615   59.1174   77.4118 C.ar    1  UNL1        0.0145
      3 C          -0.9904   58.3632   77.5720 C.ar    1  UNL1        0.0019
      4 C          -0.6259   57.3683   76.6487 C.ar    1  UNL1        0.0342
      5 C          -1.4569   57.2060   75.5289 C.ar    1  UNL1        0.0019
      6 C          -2.6385   57.9448   75.3787 C.ar    1  UNL1        0.0145
      7 C           0.6584   56.5666   76.8448 C.3     1  UNL1        0.2563
      8 O           1.6805   57.3113   76.1685 O.3     1  UNL1       -0.3562
      9 C           1.1657   56.4425   78.3342 C.3     1  UNL1        0.1704
     10 N           0.6477   55.2359   79.1365 N.4     1  UNL1        0.3120
     11 C          -0.7644   55.4849   79.6688 C.3     1  UNL1        0.1710
     12 C           1.5535   54.9813   80.3303 C.3     1  UNL1        0.1710
     13 C           0.6807   53.9831   78.2353 C.3     1  UNL1        0.1419
     14 C           0.0122   54.2515   76.8896 C.3     1  UNL1        0.2057
     15 O           0.6641   55.3067   76.1696 O.3     1  UNL1       -0.3204
     16 H           1.4546   57.2072   75.2265 H       1  UNL1        0.2133
     17 C          -6.5638   60.0664   75.7896 C.3     1  UNL1        0.0949
     18 C          -5.4930   59.0567   76.1069 C.2     1  UNL1        0.2266
     19 O          -5.7921   57.8888   76.3097 O.2     1  UNL1       -0.2748
     20 N          -4.2156   59.5966   76.1098 N.am    1  UNL1       -0.2839
     21 H          -4.1390   60.5833   75.9267 H       1  UNL1        0.1549
@<TRIPOS>UNITY_ATOM_ATTR
10 1
charge 1
@<TRIPOS>BOND
     1    17    18    1
     2    18    19    2
     3    18    20   am
     4    20     1    1
     5    20    21    1
     6     1     2   ar
     7     1     6   ar
     8     2     3   ar
     9     3     4   ar
    10     4     5   ar
    11     7     4    1
    12     7     8    1
    13     7     9    1
    14     7    15    1
    15     8    16    1
    16     9    10    1
    17    10    11    1
    18    10    12    1
    19    10    13    1
    20    13    14    1
    21    14    15    1
    22     5     6   ar
#	Name:			CHEMBL357451
#	Creating user name:	trannguyen
#	Creation time:		Tue Feb  8 17:54:08 2022


#	Modifying user name:	trannguyen
#	Modification time:	Tue Feb  8 17:54:08 2022

@<TRIPOS>MOLECULE
CHEMBL357451
 9 8 0 0 0
SMALL
GASTEIGER

@<TRIPOS>ATOM
      1 C          -3.4867   56.4964   75.6466 C.3     1  UNL1        0.1092
      2 C          -3.8743   58.9546   75.1988 C.3     1  UNL1        0.1710
      3 N          -3.9338   57.8339   76.2396 N.4     1  UNL1        0.3106
      4 C          -2.9310   58.2046   77.3510 C.3     1  UNL1        0.1710
      5 C          -5.3151   57.7878   76.8563 C.3     1  UNL1        0.1710
      6 C          -1.9742   56.3903   75.4284 C.3     1  UNL1        0.0619
      7 C          -1.5491   54.9278   75.2187 C.3     1  UNL1        0.0183
      8 C          -2.5870   53.9122   75.6791 C.3     1  UNL1        0.0678
      9 BR         -2.1006   52.1052   75.1441 Br      1  UNL1       -0.0808
@<TRIPOS>UNITY_ATOM_ATTR
3 1
charge 1
@<TRIPOS>BOND
     1     2     3    1
     2     3     4    1
     3     3     5    1
     4     3     1    1
     5     1     6    1
     6     6     7    1
     7     7     8    1
     8     8     9    1
#	Name:			CHEMBL357551
#	Creating user name:	trannguyen
#	Creation time:		Tue Feb  8 17:54:08 2022


#	Modifying user name:	trannguyen
#	Modification time:	Tue Feb  8 17:54:08 2022

@<TRIPOS>MOLECULE
CHEMBL357551
 34 37 0 0 0
SMALL
GASTEIGER

@<TRIPOS>ATOM
      1 C          -1.9177   54.4089   75.2590 C.3     1  UNL1        0.0017
      2 C          -1.0420   55.5510   75.7836 C.3     1  UNL1        0.0212
      3 C          -0.0035   55.0806   76.8011 C.3     1  UNL1        0.0894
      4 C           1.3239   57.0798   77.3670 C.2     1  UNL1        0.2269
      5 O           1.9150   57.0845   76.2903 O.2     1  UNL1       -0.2747
      6 N           0.3742   56.1387   77.7087 N.am    1  UNL1       -0.3041
      7 H          -0.1760   56.2691   78.5485 H       1  UNL1        0.1494
      8 C           1.5718   58.1215   78.4388 C.3     1  UNL1        0.1113
      9 C          -0.2727   61.9956   77.6324 C.ar    1  UNL1        0.0479
     10 C           0.5100   61.3416   76.6677 C.ar    1  UNL1        0.0142
     11 C           1.1084   60.0998   76.9084 C.ar    1  UNL1       -0.0025
     12 C           0.9543   59.4625   78.1412 C.ar    1  UNL1       -0.0130
     13 C           0.1442   60.0713   79.0994 C.ar    1  UNL1       -0.0025
     14 C          -0.4573   61.3085   78.8436 C.ar    1  UNL1        0.0142
     15 C          -0.9086   63.7140   75.9891 C.3     1  UNL1        0.1122
     16 N          -0.8691   63.2342   77.3694 N.pl3   1  UNL1       -0.3041
     17 C          -2.0175   63.6234   78.1903 C.3     1  UNL1        0.1122
     18 C          -1.5391   53.0599   75.8678 C.3     1  UNL1        0.0001
     19 C          -2.7621   52.2320   76.2553 C.3     1  UNL1        0.0000
     20 C          -3.7617   53.1116   77.0041 C.3     1  UNL1        0.0014
     21 C          -3.2471   53.5192   78.3827 C.3     1  UNL1        0.0171
     22 C          -3.5405   55.0005   78.6346 C.3     1  UNL1        0.0685
     23 N          -4.5319   55.4785   77.6749 N.3     1  UNL1       -0.2996
     24 H          -5.4661   55.2953   78.0415 H       1  UNL1        0.1232
     25 C          -4.4244   56.8991   77.3037 C.3     1  UNL1        0.0419
     26 C          -3.1642   57.4546   78.0231 C.3     1  UNL1        0.0144
     27 C          -2.9588   58.9445   77.6988 C.3     1  UNL1        0.0013
     28 C          -2.7880   59.1136   76.1811 C.3     1  UNL1        0.0001
     29 C          -4.0359   58.5941   75.4517 C.3     1  UNL1        0.0013
     30 C          -5.2690   59.3812   75.9261 C.3     1  UNL1        0.0001
     31 C          -5.4467   59.2203   77.4453 C.3     1  UNL1        0.0013
     32 C          -4.1903   59.7376   78.1619 C.3     1  UNL1        0.0001
     33 C          -5.6455   57.7298   77.7759 C.3     1  UNL1        0.0144
     34 C          -4.2315   57.1030   75.7782 C.3     1  UNL1        0.0144
@<TRIPOS>BOND
     1    15    16    1
     2    16    17    1
     3    16     9    1
     4     9    10   ar
     5     9    14   ar
     6    10    11   ar
     7    11    12   ar
     8    12     8    1
     9    12    13   ar
    10     8     4    1
    11     4     5    2
    12     4     6   am
    13     6     3    1
    14     6     7    1
    15     3     2    1
    16     2     1    1
    17     1    18    1
    18    18    19    1
    19    19    20    1
    20    20    21    1
    21    21    22    1
    22    22    23    1
    23    23    25    1
    24    23    24    1
    25    25    26    1
    26    25    33    1
    27    25    34    1
    28    26    27    1
    29    27    28    1
    30    27    32    1
    31    28    29    1
    32    29    30    1
    33    29    34    1
    34    30    31    1
    35    31    32    1
    36    31    33    1
    37    13    14   ar
#	Name:			CHEMBL359415
#	Creating user name:	trannguyen
#	Creation time:		Tue Feb  8 17:54:08 2022


#	Modifying user name:	trannguyen
#	Modification time:	Tue Feb  8 17:54:08 2022

@<TRIPOS>MOLECULE
CHEMBL359415
 34 37 0 0 0
SMALL
GASTEIGER

@<TRIPOS>ATOM
      1 C           0.9120   56.7549   77.7877 C.3     1  UNL1        0.0719
      2 C           1.1595   57.7927   76.6881 C.3     1  UNL1        0.0196
      3 C          -0.1550   58.4183   76.2110 C.3     1  UNL1        0.0017
      4 C          -0.9156   59.1558   77.3455 C.3     1  UNL1        0.0001
      5 C          -0.0366   60.3859   77.7440 C.3     1  UNL1        0.0000
      6 C          -1.1356   58.1993   78.5362 C.3     1  UNL1        0.0016
      7 C          -1.6756   58.9580   79.7590 C.3     1  UNL1        0.0001
      8 C          -2.6638   60.1024   79.4876 C.3     1  UNL1        0.0000
      9 C          -3.1112   60.3953   78.0372 C.3     1  UNL1        0.0000
     10 C          -2.3282   59.6798   76.8907 C.3     1  UNL1        0.0000
     11 C          -3.2403   58.7249   76.0435 C.3     1  UNL1        0.0000
     12 C          -4.4613   58.0380   76.6960 C.3     1  UNL1        0.0000
     13 C          -5.1945   58.8545   77.7871 C.3     1  UNL1        0.0012
     14 C          -5.0197   58.1047   79.1274 C.3     1  UNL1        0.0000
     15 C          -6.7242   59.1704   77.5123 C.3     1  UNL1        0.0147
     16 C          -6.9426   60.5906   78.1258 C.3     1  UNL1        0.0013
     17 C          -5.5818   61.0947   78.6143 C.3     1  UNL1        0.0000
     18 C          -4.6173   60.2863   77.7686 C.3     1  UNL1        0.0000
     19 C           0.1099   57.3718   78.9468 C.3     1  UNL1        0.0196
     20 C           0.5798   54.2749   77.6546 C.2     1  UNL1        0.2453
     21 O           1.4411   53.9755   78.4591 O.2     1  UNL1       -0.2702
     22 N           0.2466   55.5590   77.2687 N.am    1  UNL1       -0.3025
     23 H          -0.4519   55.6801   76.5498 H       1  UNL1        0.1497
     24 C          -2.3989   53.4977   78.2045 C.3     1  UNL1        0.0265
     25 C          -1.5104   52.9024   77.1369 C.2     1  UNL1       -0.0397
     26 C          -0.2263   53.2588   76.9169 C.2     1  UNL1        0.0492
     27 C          -2.2108   51.8460   76.2713 C.3     1  UNL1        0.0185
     28 C          -3.7309   51.9334   76.4421 C.3     1  UNL1        0.0044
     29 C          -1.8592   51.9033   74.7784 C.3     1  UNL1        0.0044
     30 C          -7.7971   58.1318   77.9970 C.3     1  UNL1        0.0576
     31 C          -7.9831   57.0130   76.9576 C.3     1  UNL1        0.0173
     32 N          -9.0866   58.7420   78.4245 N.3     1  UNL1       -0.2716
     33 C          -9.6380   58.1128   79.6304 C.3     1  UNL1        0.0896
     34 C         -10.1202   58.8184   77.3954 C.3     1  UNL1        0.0896
@<TRIPOS>BOND
     1    24    25    1
     2    25    26    2
     3    25    27    1
     4    26    20    1
     5    20    21    2
     6    20    22   am
     7    22    23    1
     8     1     2    1
     9     1    19    1
    10     1    22    1
    11     2     3    1
    12     3     4    1
    13     4     5    1
    14     4     6    1
    15     4    10    1
    16     6     7    1
    17     6    19    1
    18     7     8    1
    19     8     9    1
    20     9    10    1
    21     9    18    1
    22    10    11    1
    23    11    12    1
    24    12    13    1
    25    13    14    1
    26    13    15    1
    27    13    18    1
    28    15    16    1
    29    30    31    1
    30    30    32    1
    31    30    15    1
    32    32    33    1
    33    32    34    1
    34    16    17    1
    35    17    18    1
    36    27    28    1
    37    27    29    1
#	Name:			CHEMBL360055
#	Creating user name:	trannguyen
#	Creation time:		Tue Feb  8 17:54:08 2022


#	Modifying user name:	trannguyen
#	Modification time:	Tue Feb  8 17:54:08 2022

@<TRIPOS>MOLECULE
CHEMBL360055
 36 36 0 0 0
SMALL
GASTEIGER

@<TRIPOS>ATOM
      1 C           1.6166   67.2392   67.0195 C.ar    1  UNL1        0.1756
      2 C           1.6178   66.5600   68.2558 C.ar    1  UNL1        0.0403
      3 C           2.0020   67.2308   69.4262 C.ar    1  UNL1        0.0064
      4 C           2.3823   68.5183   69.3494 C.ar    1  UNL1        0.0403
      5 C           2.4909   69.2111   68.1328 C.ar    1  UNL1        0.1756
      6 C           2.1839   68.5168   66.9174 C.ar    1  UNL1        0.2061
      7 O           2.3465   69.0548   65.6589 O.3     1  UNL1       -0.4630
      8 C           3.6384   69.5385   65.2165 C.3     1  UNL1        0.2661
      9 C           4.3825   68.4881   64.3714 C.3     1  UNL1        0.1566
     10 N           4.0086   68.4296   62.8310 N.4     1  UNL1        0.2998
     11 C           4.9682   69.3235   61.9887 C.3     1  UNL1        0.1088
     12 C           6.2606   69.7336   62.7009 C.3     1  UNL1        0.0671
     13 C           2.5645   68.9556   62.5838 C.3     1  UNL1        0.1088
     14 C           2.1496   69.1017   61.1310 C.3     1  UNL1        0.0671
     15 C           4.1584   66.9331   62.3752 C.3     1  UNL1        0.1088
     16 C           4.5301   66.8113   60.8919 C.3     1  UNL1        0.0671
     17 O           2.8725   70.5130   68.0936 O.3     1  UNL1       -0.4659
     18 C           3.5465   71.0320   69.2500 C.3     1  UNL1        0.2659
     19 C           4.8207   71.7850   68.7889 C.3     1  UNL1        0.1566
     20 N           6.1344   70.9577   68.8217 N.4     1  UNL1        0.2998
     21 C           6.2557   70.0539   67.5558 C.3     1  UNL1        0.1088
     22 C           6.5985   70.7313   66.2434 C.3     1  UNL1        0.0671
     23 C           7.3407   71.9546   68.7586 C.3     1  UNL1        0.1088
     24 C           8.6513   71.3005   69.2428 C.3     1  UNL1        0.0671
     25 C           6.1048   70.1164   70.1384 C.3     1  UNL1        0.1088
     26 C           7.1638   70.3661   71.1963 C.3     1  UNL1        0.0671
     27 O           1.1023   66.5821   65.8908 O.3     1  UNL1       -0.4659
     28 C           2.0530   66.2861   64.8277 C.3     1  UNL1        0.2659
     29 C           2.1993   64.7570   64.6629 C.3     1  UNL1        0.1566
     30 N           3.6665   64.1450   64.9090 N.4     1  UNL1        0.2998
     31 C           4.5835   65.3356   65.3402 C.3     1  UNL1        0.1088
     32 C           5.7855   65.5584   64.4269 C.3     1  UNL1        0.0671
     33 C           4.1810   63.5792   63.5490 C.3     1  UNL1        0.1088
     34 C           5.3338   62.5796   63.6083 C.3     1  UNL1        0.0671
     35 C           3.9173   63.4814   67.4283 C.3     1  UNL1        0.0671
     36 C           3.5655   63.0610   66.0118 C.3     1  UNL1        0.1088
@<TRIPOS>UNITY_ATOM_ATTR
10 1
charge 1
20 1
charge 1
30 1
charge 1
@<TRIPOS>BOND
     1    35    36    1
     2    36    30    1
     3    30    31    1
     4    30    33    1
     5    30    29    1
     6    31    32    1
     7    33    34    1
     8    29    28    1
     9    28    27    1
    10    27     1    1
    11     1     2   ar
    12     1     6   ar
    13     2     3   ar
    14     3     4   ar
    15     4     5   ar
    16     5    17    1
    17     5     6   ar
    18    17    18    1
    19    18    19    1
    20    19    20    1
    21    20    21    1
    22    20    23    1
    23    20    25    1
    24    21    22    1
    25    23    24    1
    26    25    26    1
    27     6     7    1
    28     7     8    1
    29     8     9    1
    30     9    10    1
    31    10    15    1
    32    10    13    1
    33    10    11    1
    34    15    16    1
    35    13    14    1
    36    11    12    1
#	Name:			CHEMBL3604338
#	Creating user name:	trannguyen
#	Creation time:		Tue Feb  8 17:54:08 2022


#	Modifying user name:	trannguyen
#	Modification time:	Tue Feb  8 17:54:08 2022

@<TRIPOS>MOLECULE
CHEMBL3604338
 29 32 0 0 0
SMALL
GASTEIGER

@<TRIPOS>ATOM
      1 N          -0.6634   57.1817   77.5378 N.am    1  UNL1       -0.2871
      2 C           0.7518   56.8624   77.7710 C.3     1  UNL1        0.0935
      3 C           1.6676   58.0336   77.3883 C.3     1  UNL1        0.0332
      4 C           1.5700   59.2719   78.3175 C.3     1  UNL1        0.0783
      5 C           1.8429   58.8495   79.7574 C.2     1  UNL1       -0.0212
      6 C           3.0429   58.9870   80.3427 C.2     1  UNL1       -0.0015
      7 C           4.1622   59.7125   79.6739 C.3     1  UNL1        0.1358
      8 O           4.8601   58.8031   78.8392 O.3     1  UNL1       -0.3799
      9 C           3.6014   60.8575   78.8473 C.3     1  UNL1        0.0779
     10 C           2.5489   60.3987   77.8245 C.3     1  UNL1        0.1761
     11 O           1.7937   61.5931   77.4736 O.3     1  UNL1       -0.4757
     12 C           0.4782   61.2990   77.7157 C.ar    1  UNL1        0.1682
     13 C          -0.5641   62.1999   77.5143 C.ar    1  UNL1        0.1725
     14 C          -1.8595   61.7426   77.7484 C.ar    1  UNL1        0.0465
     15 C          -2.0988   60.4216   78.1475 C.ar    1  UNL1        0.0351
     16 BR         -3.9253   59.9734   78.4381 Br      1  UNL1       -0.0492
     17 C          -1.0458   59.5029   78.3048 C.ar    1  UNL1        0.0034
     18 C           0.2596   59.9921   78.1450 C.ar    1  UNL1        0.0195
     19 C          -1.2866   58.0363   78.5603 C.3     1  UNL1        0.1194
     20 H           5.2489   58.1232   79.4158 H       1  UNL1        0.2108
     21 C          -1.3119   56.8163   76.3463 C.2     1  UNL1        0.1351
     22 S          -2.6478   57.6260   75.7192 S.2     1  UNL1       -0.0186
     23 N          -0.7469   55.7319   75.7079 N.am    1  UNL1       -0.3122
     24 H           0.2572   55.6791   75.6891 H       1  UNL1        0.1488
     25 C          -1.4216   54.4893   75.3843 C.3     1  UNL1        0.1153
     26 C          -0.2379   53.2688   77.2195 C.2     1  UNL1       -0.0032
     27 C          -1.3804   53.6064   76.5861 C.2     1  UNL1       -0.0050
     28 O          -0.2602   63.4734   77.1143 O.3     1  UNL1       -0.4684
     29 C          -0.8476   63.8991   75.8850 C.3     1  UNL1        0.2526
@<TRIPOS>BOND
     1    26    27    2
     2    27    25    1
     3    25    23    1
     4    23    21    1
     5    23    24    1
     6    21    22    2
     7    21     1    1
     8     1     2    1
     9     1    19    1
    10     2     3    1
    11     4     3    1
    12     4     5    1
    13     4    10    1
    14     4    18    1
    15     5     6    2
    16     6     7    1
    17     7     8    1
    18     7     9    1
    19     8    20    1
    20     9    10    1
    21    10    11    1
    22    11    12    1
    23    12    13   ar
    24    12    18   ar
    25    13    28    1
    26    13    14   ar
    27    28    29    1
    28    14    15   ar
    29    15    16    1
    30    15    17   ar
    31    17    18   ar
    32    17    19    1
#	Name:			CHEMBL3604339
#	Creating user name:	trannguyen
#	Creation time:		Tue Feb  8 17:54:08 2022


#	Modifying user name:	trannguyen
#	Modification time:	Tue Feb  8 17:54:08 2022

@<TRIPOS>MOLECULE
CHEMBL3604339
 22 25 0 0 0
SMALL
GASTEIGER

@<TRIPOS>ATOM
      1 C           3.5658   64.4187   64.9689 C.ar    1  UNL1        0.1721
      2 C           4.3244   63.9684   63.8846 C.ar    1  UNL1        0.0397
      3 C           4.7113   64.8377   62.8509 C.ar    1  UNL1        0.0001
      4 C           4.3500   66.1935   62.8679 C.ar    1  UNL1       -0.0068
      5 C           3.5909   66.6317   63.9499 C.ar    1  UNL1        0.0187
      6 C           3.1992   65.7558   64.9706 C.ar    1  UNL1        0.1682
      7 O           2.4499   66.3809   65.9406 O.3     1  UNL1       -0.4757
      8 C           2.0266   67.6120   65.3063 C.3     1  UNL1        0.1761
      9 C           1.7808   68.6767   66.3706 C.3     1  UNL1        0.0779
     10 C           3.0697   69.0928   67.0765 C.3     1  UNL1        0.1358
     11 O           2.8327   70.3053   67.7840 O.3     1  UNL1       -0.3799
     12 C           4.2039   69.3220   66.1282 C.2     1  UNL1       -0.0015
     13 C           4.2208   68.8575   64.8690 C.2     1  UNL1       -0.0213
     14 C           3.1073   68.0166   64.2575 C.3     1  UNL1        0.0780
     15 C           2.4347   68.7310   63.0706 C.3     1  UNL1        0.0288
     16 C           3.3337   69.0488   61.8740 C.3     1  UNL1        0.0696
     17 N           3.7635   67.8696   61.1250 N.3     1  UNL1       -0.2937
     18 C           4.8332   67.1226   61.7878 C.3     1  UNL1        0.0954
     19 H           2.7146   71.0097   67.1247 H       1  UNL1        0.2108
     20 H           4.1191   68.1816   60.2213 H       1  UNL1        0.1236
     21 C           4.0480   63.4382   67.0829 C.3     1  UNL1        0.2526
     22 O           3.2771   63.4539   65.8897 O.3     1  UNL1       -0.4684
@<TRIPOS>BOND
     1    21    22    1
     2    22     1    1
     3     1     2   ar
     4     1     6   ar
     5     2     3   ar
     6     3     4   ar
     7     4     5   ar
     8     4    18    1
     9     5     6   ar
    10     5    14    1
    11     6     7    1
    12     7     8    1
    13     8     9    1
    14     8    14    1
    15     9    10    1
    16    10    12    1
    17    10    11    1
    18    11    19    1
    19    12    13    2
    20    14    13    1
    21    14    15    1
    22    15    16    1
    23    16    17    1
    24    17    18    1
    25    17    20    1
#	Name:			CHEMBL3604340
#	Creating user name:	trannguyen
#	Creation time:		Tue Feb  8 17:54:08 2022


#	Modifying user name:	trannguyen
#	Modification time:	Tue Feb  8 17:54:08 2022

@<TRIPOS>MOLECULE
CHEMBL3604340
 29 33 0 0 0
SMALL
GASTEIGER

@<TRIPOS>ATOM
      1 C           0.5534   58.8157   76.2966 C.ar    1  UNL1        0.1721
      2 C           0.5244   59.9935   77.0470 C.ar    1  UNL1        0.0397
      3 C          -0.6631   60.4398   77.6601 C.ar    1  UNL1        0.0001
      4 C          -1.8614   59.7132   77.5485 C.ar    1  UNL1       -0.0066
      5 C          -1.8072   58.5364   76.8112 C.ar    1  UNL1        0.0187
      6 C          -0.6274   58.1008   76.2009 C.ar    1  UNL1        0.1682
      7 O          -0.7817   56.9004   75.5494 O.3     1  UNL1       -0.4757
      8 C          -2.2109   56.7910   75.3763 C.3     1  UNL1        0.1761
      9 C          -2.6073   55.3212   75.2840 C.3     1  UNL1        0.0779
     10 C          -2.4172   54.5840   76.6080 C.3     1  UNL1        0.1358
     11 O          -3.1257   53.3499   76.5452 O.3     1  UNL1       -0.3799
     12 C          -2.9308   55.3502   77.7819 C.2     1  UNL1       -0.0015
     13 C          -3.1622   56.6762   77.7549 C.2     1  UNL1       -0.0213
     14 C          -2.9026   57.5554   76.5433 C.3     1  UNL1        0.0780
     15 C          -4.1684   58.2385   76.0204 C.3     1  UNL1        0.0290
     16 C          -4.9435   59.0841   77.0313 C.3     1  UNL1        0.0732
     17 N          -4.3025   60.3553   77.4152 N.3     1  UNL1       -0.2677
     18 C          -3.1124   60.1510   78.2766 C.3     1  UNL1        0.0990
     19 H          -4.0748   53.5584   76.5602 H       1  UNL1        0.2108
     20 C           2.1978   59.3216   74.6765 C.3     1  UNL1        0.2526
     21 O           1.7617   58.4916   75.7492 O.3     1  UNL1       -0.4684
     22 C          -5.2739   61.2136   78.1515 C.3     1  UNL1        0.0899
     23 C          -6.7341   60.6774   78.1833 C.3     1  UNL1        0.0898
     24 N          -7.7692   61.6902   77.8939 N.3     1  UNL1       -0.2672
     25 C          -7.3894   62.6562   76.8421 C.3     1  UNL1        0.1047
     26 C          -7.3920   62.0703   75.4219 C.3     1  UNL1        0.1595
     27 O          -8.6736   61.5197   75.0957 O.3     1  UNL1       -0.3508
     28 C          -9.0405   60.5045   76.0373 C.3     1  UNL1        0.1595
     29 C          -9.0409   61.0443   77.4801 C.3     1  UNL1        0.1047
@<TRIPOS>BOND
     1    20    21    1
     2    21     1    1
     3     1     2   ar
     4     1     6   ar
     5     2     3   ar
     6     3     4   ar
     7     4     5   ar
     8     4    18    1
     9     5     6   ar
    10     5    14    1
    11     6     7    1
    12     7     8    1
    13     8     9    1
    14     8    14    1
    15     9    10    1
    16    10    12    1
    17    10    11    1
    18    11    19    1
    19    12    13    2
    20    14    13    1
    21    14    15    1
    22    15    16    1
    23    16    17    1
    24    17    22    1
    25    17    18    1
    26    22    23    1
    27    23    24    1
    28    24    25    1
    29    24    29    1
    30    25    26    1
    31    26    27    1
    32    27    28    1
    33    28    29    1
#	Name:			CHEMBL3604341
#	Creating user name:	trannguyen
#	Creation time:		Tue Feb  8 17:54:08 2022


#	Modifying user name:	trannguyen
#	Modification time:	Tue Feb  8 17:54:08 2022

@<TRIPOS>MOLECULE
CHEMBL3604341
 26 29 0 0 0
SMALL
GASTEIGER

@<TRIPOS>ATOM
      1 C           2.0548   59.8546   77.5521 C.ar    1  UNL1        0.1721
      2 C           1.2884   60.9872   77.2643 C.ar    1  UNL1        0.0397
      3 C          -0.0824   60.8860   76.9562 C.ar    1  UNL1        0.0001
      4 C          -0.7364   59.6425   76.9253 C.ar    1  UNL1       -0.0066
      5 C           0.0417   58.5255   77.2089 C.ar    1  UNL1        0.0187
      6 C           1.4058   58.6328   77.5068 C.ar    1  UNL1        0.1682
      7 O           1.9862   57.4113   77.7586 O.3     1  UNL1       -0.4757
      8 C           1.0491   56.4678   77.1936 C.3     1  UNL1        0.1761
      9 C           1.1809   55.1303   77.9121 C.3     1  UNL1        0.0779
     10 C           0.7324   55.2128   79.3699 C.3     1  UNL1        0.1358
     11 O           0.5345   53.8916   79.8615 O.3     1  UNL1       -0.3799
     12 C          -0.5469   55.9694   79.5447 C.2     1  UNL1       -0.0015
     13 C          -1.0515   56.7927   78.6178 C.2     1  UNL1       -0.0213
     14 C          -0.3744   57.0923   77.2876 C.3     1  UNL1        0.0780
     15 C          -1.2091   56.6463   76.0827 C.3     1  UNL1        0.0290
     16 C          -2.6136   57.2443   75.9781 C.3     1  UNL1        0.0734
     17 N          -2.6602   58.6710   75.5992 N.3     1  UNL1       -0.2652
     18 C          -2.2294   59.5599   76.7007 C.3     1  UNL1        0.0992
     19 H          -0.2498   53.5304   79.4150 H       1  UNL1        0.2108
     20 C           3.7164   60.2491   79.2054 C.3     1  UNL1        0.2526
     21 O           3.3677   60.1015   77.8338 O.3     1  UNL1       -0.4684
     22 C          -4.0474   59.0390   75.2198 C.3     1  UNL1        0.0985
     23 C          -5.0555   58.5811   76.2418 C.2     1  UNL1       -0.0172
     24 C          -6.2513   59.1259   76.5485 C.2     1  UNL1       -0.0465
     25 C          -6.8712   60.3178   75.8726 C.3     1  UNL1        0.0261
     26 C          -7.0735   58.5650   77.6807 C.3     1  UNL1        0.0261
@<TRIPOS>BOND
     1    20    21    1
     2    21     1    1
     3     1     2   ar
     4     1     6   ar
     5     2     3   ar
     6     3     4   ar
     7     4     5   ar
     8     4    18    1
     9     5     6   ar
    10     5    14    1
    11     6     7    1
    12     7     8    1
    13     8     9    1
    14     8    14    1
    15     9    10    1
    16    10    12    1
    17    10    11    1
    18    11    19    1
    19    12    13    2
    20    14    13    1
    21    14    15    1
    22    15    16    1
    23    16    17    1
    24    17    22    1
    25    17    18    1
    26    22    23    1
    27    23    24    2
    28    24    25    1
    29    24    26    1
#	Name:			CHEMBL3604342
#	Creating user name:	trannguyen
#	Creation time:		Tue Feb  8 17:54:08 2022


#	Modifying user name:	trannguyen
#	Modification time:	Tue Feb  8 17:54:08 2022

@<TRIPOS>MOLECULE
CHEMBL3604342
 29 33 0 0 0
SMALL
GASTEIGER

@<TRIPOS>ATOM
      1 C           3.3259   64.6567   64.4344 C.ar    1  UNL1        0.1721
      2 C           2.9414   64.7367   65.7757 C.ar    1  UNL1        0.0397
      3 C           2.8923   65.9708   66.4500 C.ar    1  UNL1        0.0001
      4 C           3.2210   67.1696   65.7977 C.ar    1  UNL1       -0.0066
      5 C           3.5933   67.0732   64.4612 C.ar    1  UNL1        0.0187
      6 C           3.6431   65.8445   63.7962 C.ar    1  UNL1        0.1682
      7 O           4.0034   65.9723   62.4766 O.3     1  UNL1       -0.4757
      8 C           4.6060   67.2857   62.4072 C.3     1  UNL1        0.1761
      9 C           4.4290   67.8546   61.0019 C.3     1  UNL1        0.0779
     10 C           2.9744   68.2020   60.6938 C.3     1  UNL1        0.1358
     11 O           2.9353   69.0053   59.5188 O.3     1  UNL1       -0.3799
     12 C           2.3265   68.9693   61.8028 C.2     1  UNL1       -0.0015
     13 C           2.7848   68.9746   63.0594 C.2     1  UNL1       -0.0213
     14 C           3.9910   68.1764   63.5334 C.3     1  UNL1        0.0780
     15 C           5.0951   69.0495   64.1514 C.3     1  UNL1        0.0290
     16 C           4.7035   69.9488   65.3329 C.3     1  UNL1        0.0734
     17 N           4.3516   69.2768   66.6010 N.3     1  UNL1       -0.2652
     18 C           3.0953   68.5000   66.5006 C.3     1  UNL1        0.0992
     19 H           3.3120   69.8724   59.7437 H       1  UNL1        0.2108
     20 C           4.5794   62.7159   63.9105 C.3     1  UNL1        0.2526
     21 O           3.3299   63.3967   63.9092 O.3     1  UNL1       -0.4684
     22 C           4.1674   70.2903   67.6754 C.3     1  UNL1        0.0994
     23 C           5.4140   70.6354   68.4707 C.ar    1  UNL1       -0.0061
     24 C           5.5151   70.2778   69.8260 C.ar    1  UNL1       -0.0024
     25 C           6.6654   70.5803   70.5598 C.ar    1  UNL1        0.0064
     26 C           7.7315   71.2247   69.9372 C.ar    1  UNL1        0.0345
     27 BR          9.2973   71.6123   70.9238 Br      1  UNL1       -0.0490
     28 C           7.6537   71.5777   68.5915 C.ar    1  UNL1        0.0064
     29 C           6.4958   71.2893   67.8627 C.ar    1  UNL1       -0.0024
@<TRIPOS>BOND
     1    20    21    1
     2    21     1    1
     3     1     2   ar
     4     1     6   ar
     5     2     3   ar
     6     3     4   ar
     7     4     5   ar
     8     4    18    1
     9     5     6   ar
    10     5    14    1
    11     6     7    1
    12     7     8    1
    13     8     9    1
    14     8    14    1
    15     9    10    1
    16    10    12    1
    17    10    11    1
    18    11    19    1
    19    12    13    2
    20    14    13    1
    21    14    15    1
    22    15    16    1
    23    16    17    1
    24    17    22    1
    25    17    18    1
    26    22    23    1
    27    23    24   ar
    28    23    29   ar
    29    24    25   ar
    30    25    26   ar
    31    26    27    1
    32    26    28   ar
    33    28    29   ar
#	Name:			CHEMBL3604343
#	Creating user name:	trannguyen
#	Creation time:		Tue Feb  8 17:54:08 2022


#	Modifying user name:	trannguyen
#	Modification time:	Tue Feb  8 17:54:08 2022

@<TRIPOS>MOLECULE
CHEMBL3604343
 29 33 0 0 0
SMALL
GASTEIGER

@<TRIPOS>ATOM
      1 C          -4.3215   58.6163   75.9119 C.ar    1  UNL1        0.1721
      2 C          -4.6373   57.2963   76.2422 C.ar    1  UNL1        0.0398
      3 C          -3.8084   56.5420   77.0848 C.ar    1  UNL1        0.0004
      4 C          -2.6474   57.0995   77.6396 C.ar    1  UNL1       -0.0028
      5 C          -2.3328   58.4126   77.3007 C.ar    1  UNL1        0.0191
      6 C          -3.1585   59.1494   76.4474 C.ar    1  UNL1        0.1682
      7 O          -2.7037   60.4325   76.2590 O.3     1  UNL1       -0.4757
      8 C          -1.3110   60.3596   76.6620 C.3     1  UNL1        0.1761
      9 C          -0.8380   61.7453   77.1028 C.3     1  UNL1        0.0779
     10 C          -1.5166   62.2066   78.3918 C.3     1  UNL1        0.1358
     11 O          -2.8367   62.6620   78.1301 O.3     1  UNL1       -0.3799
     12 C          -1.6095   61.1280   79.4228 C.2     1  UNL1       -0.0015
     13 C          -1.4430   59.8218   79.1583 C.2     1  UNL1       -0.0212
     14 C          -1.1830   59.2621   77.7655 C.3     1  UNL1        0.0783
     15 C           0.2006   58.5782   77.6584 C.3     1  UNL1        0.0332
     16 C           0.4247   57.3467   78.5461 C.3     1  UNL1        0.0948
     17 N          -0.4182   56.2024   78.1901 N.am    1  UNL1       -0.2720
     18 C           0.0815   55.3125   77.2208 C.2     1  UNL1        0.2493
     19 O           1.1848   55.4779   76.7073 O.2     1  UNL1       -0.2699
     20 C          -1.8132   56.3130   78.6069 C.3     1  UNL1        0.1202
     21 H          -3.2986   61.9388   77.6633 H       1  UNL1        0.2108
     22 C          -0.7104   54.1364   76.7441 C.ar    1  UNL1        0.0536
     23 C          -0.7168   52.9822   77.5448 C.ar    1  UNL1        0.0045
     24 C          -1.4331   51.8461   77.1546 C.ar    1  UNL1        0.0001
     25 C          -2.1367   51.8467   75.9529 C.ar    1  UNL1        0.0000
     26 C          -2.1835   53.0038   75.1792 C.ar    1  UNL1        0.0001
     27 C          -1.5145   54.1570   75.6009 C.ar    1  UNL1        0.0045
     28 C          -6.4012   59.7305   75.7601 C.3     1  UNL1        0.2526
     29 O          -5.2345   59.2398   75.1127 O.3     1  UNL1       -0.4684
@<TRIPOS>BOND
     1    28    29    1
     2    29     1    1
     3     1     2   ar
     4     1     6   ar
     5     2     3   ar
     6     3     4   ar
     7     4     5   ar
     8     4    20    1
     9     5     6   ar
    10     5    14    1
    11     6     7    1
    12     7     8    1
    13     8     9    1
    14     8    14    1
    15     9    10    1
    16    10    11    1
    17    10    12    1
    18    11    21    1
    19    12    13    2
    20    14    13    1
    21    14    15    1
    22    15    16    1
    23    16    17    1
    24    17    18   am
    25    17    20    1
    26    18    19    2
    27    18    22    1
    28    22    23   ar
    29    22    27   ar
    30    23    24   ar
    31    24    25   ar
    32    25    26   ar
    33    26    27   ar
#	Name:			CHEMBL3604345
#	Creating user name:	trannguyen
#	Creation time:		Tue Feb  8 17:54:08 2022


#	Modifying user name:	trannguyen
#	Modification time:	Tue Feb  8 17:54:08 2022

@<TRIPOS>MOLECULE
CHEMBL3604345
 30 34 0 0 0
SMALL
GASTEIGER

@<TRIPOS>ATOM
      1 C          -3.6878   59.0481   76.4576 C.ar    1  UNL1        0.1721
      2 C          -4.0603   57.8749   77.1182 C.ar    1  UNL1        0.0398
      3 C          -3.2111   57.2744   78.0602 C.ar    1  UNL1        0.0004
      4 C          -1.9716   57.8461   78.3790 C.ar    1  UNL1       -0.0028
      5 C          -1.6194   59.0323   77.7363 C.ar    1  UNL1        0.0191
      6 C          -2.4637   59.6102   76.7878 C.ar    1  UNL1        0.1682
      7 O          -1.9838   60.8031   76.3076 O.3     1  UNL1       -0.4757
      8 C          -0.5936   60.8220   76.7215 C.3     1  UNL1        0.1761
      9 C          -0.1600   62.2743   76.9288 C.3     1  UNL1        0.0779
     10 C          -0.8853   62.9235   78.1083 C.3     1  UNL1        0.1358
     11 O          -2.2278   63.2393   77.7691 O.3     1  UNL1       -0.3799
     12 C          -0.9168   62.0450   79.3166 C.2     1  UNL1       -0.0015
     13 C          -0.6839   60.7234   79.2822 C.2     1  UNL1       -0.0212
     14 C          -0.4448   59.9338   77.9991 C.3     1  UNL1        0.0783
     15 C           0.9419   59.2503   77.9857 C.3     1  UNL1        0.0332
     16 C           1.1806   58.1453   79.0198 C.3     1  UNL1        0.0945
     17 N           0.2648   57.0124   78.9009 N.am    1  UNL1       -0.2743
     18 C           0.6339   55.9304   78.1074 C.2     1  UNL1        0.2423
     19 O           1.7247   55.9287   77.5055 O.2     1  UNL1       -0.2733
     20 C          -1.0809   57.2248   79.4182 C.3     1  UNL1        0.1200
     21 H          -2.6361   62.4199   77.4272 H       1  UNL1        0.2108
     22 C          -5.9684   59.4339   76.0033 C.3     1  UNL1        0.2526
     23 O          -4.6128   59.5436   75.5839 O.3     1  UNL1       -0.4684
     24 C          -0.2930   54.7080   77.9449 C.3     1  UNL1        0.1587
     25 N          -0.2842   54.1281   76.5845 N.3     1  UNL1       -0.2651
     26 C          -0.5477   52.6770   76.6047 C.3     1  UNL1        0.0725
     27 C          -2.0249   52.2595   76.6513 C.3     1  UNL1        0.0174
     28 C          -2.8517   52.9829   75.5970 C.3     1  UNL1        0.0029
     29 C          -2.6425   54.4839   75.7245 C.3     1  UNL1        0.0174
     30 C          -1.1552   54.8226   75.6253 C.3     1  UNL1        0.0725
@<TRIPOS>BOND
     1    22    23    1
     2    23     1    1
     3     1     2   ar
     4     1     6   ar
     5     2     3   ar
     6     3     4   ar
     7     4     5   ar
     8     4    20    1
     9     5     6   ar
    10     5    14    1
    11     6     7    1
    12     7     8    1
    13     8     9    1
    14     8    14    1
    15     9    10    1
    16    10    11    1
    17    10    12    1
    18    11    21    1
    19    12    13    2
    20    14    13    1
    21    14    15    1
    22    15    16    1
    23    16    17    1
    24    17    18   am
    25    17    20    1
    26    18    19    2
    27    18    24    1
    28    24    25    1
    29    25    26    1
    30    25    30    1
    31    26    27    1
    32    27    28    1
    33    28    29    1
    34    29    30    1
#	Name:			CHEMBL3604346
#	Creating user name:	trannguyen
#	Creation time:		Tue Feb  8 17:54:08 2022


#	Modifying user name:	trannguyen
#	Modification time:	Tue Feb  8 17:54:08 2022

@<TRIPOS>MOLECULE
CHEMBL3604346
 30 34 0 0 0
SMALL
GASTEIGER

@<TRIPOS>ATOM
      1 C           2.6310   65.7179   64.9422 C.ar    1  UNL1        0.1721
      2 C           1.9782   66.3097   66.0252 C.ar    1  UNL1        0.0398
      3 C           2.2258   67.6474   66.3790 C.ar    1  UNL1        0.0004
      4 C           3.1295   68.4384   65.6487 C.ar    1  UNL1       -0.0028
      5 C           3.7610   67.8444   64.5573 C.ar    1  UNL1        0.0191
      6 C           3.5134   66.5080   64.2244 C.ar    1  UNL1        0.1682
      7 O           4.1864   66.1094   63.0971 O.3     1  UNL1       -0.4757
      8 C           5.2173   67.1119   62.9338 C.3     1  UNL1        0.1761
      9 C           5.5874   67.1953   61.4532 C.3     1  UNL1        0.0779
     10 C           4.4479   67.7614   60.6054 C.3     1  UNL1        0.1358
     11 O           3.4414   66.7819   60.3924 O.3     1  UNL1       -0.3799
     12 C           3.7924   68.9503   61.2311 C.2     1  UNL1       -0.0015
     13 C           3.9141   69.2761   62.5282 C.2     1  UNL1       -0.0212
     14 C           4.6930   68.4501   63.5432 C.3     1  UNL1        0.0783
     15 C           5.8791   69.2324   64.1476 C.3     1  UNL1        0.0332
     16 C           5.5155   70.4861   64.9433 C.3     1  UNL1        0.0945
     17 N           4.7843   70.1900   66.1712 N.am    1  UNL1       -0.2754
     18 C           5.5130   69.9372   67.3363 C.2     1  UNL1        0.2273
     19 O           6.7417   69.9762   67.3707 O.2     1  UNL1       -0.2748
     20 C           3.3609   69.8803   66.0225 C.3     1  UNL1        0.1199
     21 H           3.1738   66.4521   61.2718 H       1  UNL1        0.2108
     22 C           3.3476   63.4735   64.7305 C.3     1  UNL1        0.2526
     23 O           2.2869   64.4223   64.6849 O.3     1  UNL1       -0.4684
     24 C           4.6876   69.6330   68.5797 C.3     1  UNL1        0.1026
     25 C           4.5727   70.8085   69.5475 C.3     1  UNL1        0.0817
     26 N           5.8704   71.1164   70.1749 N.3     1  UNL1       -0.2722
     27 C           6.4476   69.9987   70.9248 C.3     1  UNL1        0.0721
     28 C           7.8822   70.4436   71.1333 C.3     1  UNL1        0.0188
     29 C           8.2197   71.2403   69.8819 C.3     1  UNL1        0.0188
     30 C           6.8862   71.4765   69.1793 C.3     1  UNL1        0.0721
@<TRIPOS>BOND
     1    22    23    1
     2    23     1    1
     3     1     2   ar
     4     1     6   ar
     5     2     3   ar
     6     3     4   ar
     7     4     5   ar
     8     4    20    1
     9     5     6   ar
    10     5    14    1
    11     6     7    1
    12     7     8    1
    13     8     9    1
    14     8    14    1
    15     9    10    1
    16    10    11    1
    17    10    12    1
    18    11    21    1
    19    12    13    2
    20    14    13    1
    21    14    15    1
    22    15    16    1
    23    16    17    1
    24    17    18   am
    25    17    20    1
    26    18    19    2
    27    18    24    1
    28    24    25    1
    29    25    26    1
    30    26    27    1
    31    26    30    1
    32    27    28    1
    33    28    29    1
    34    29    30    1
#	Name:			CHEMBL3604347
#	Creating user name:	trannguyen
#	Creation time:		Tue Feb  8 17:54:08 2022


#	Modifying user name:	trannguyen
#	Modification time:	Tue Feb  8 17:54:08 2022

@<TRIPOS>MOLECULE
CHEMBL3604347
 41 46 0 0 0
SMALL
GASTEIGER

@<TRIPOS>ATOM
      1 C          -5.6683   57.4510   77.5047 C.ar    1  UNL1        0.1721
      2 C          -5.8430   58.8325   77.4191 C.ar    1  UNL1        0.0398
      3 C          -4.7332   59.6978   77.3687 C.ar    1  UNL1        0.0004
      4 C          -3.4172   59.2006   77.3779 C.ar    1  UNL1       -0.0028
      5 C          -3.2589   57.8157   77.4011 C.ar    1  UNL1        0.0191
      6 C          -4.3693   56.9761   77.4787 C.ar    1  UNL1        0.1682
      7 O          -4.0345   55.6467   77.4571 O.3     1  UNL1       -0.4757
      8 C          -2.6284   55.6321   77.7705 C.3     1  UNL1        0.1761
      9 C          -2.0235   54.3716   77.1550 C.3     1  UNL1        0.0779
     10 C          -2.0765   54.4021   75.6273 C.3     1  UNL1        0.1358
     11 O          -3.3816   54.0848   75.1598 O.3     1  UNL1       -0.3799
     12 C          -1.7030   55.7340   75.0576 C.2     1  UNL1       -0.0015
     13 C          -1.6474   56.8705   75.7722 C.2     1  UNL1       -0.0212
     14 C          -2.0233   56.9693   77.2470 C.3     1  UNL1        0.0783
     15 C          -0.8376   57.3716   78.1416 C.3     1  UNL1        0.0332
     16 C          -0.2764   58.7688   77.8813 C.3     1  UNL1        0.0945
     17 N          -1.2045   59.8329   78.2621 N.am    1  UNL1       -0.2754
     18 C          -1.1930   60.2897   79.5736 C.2     1  UNL1        0.2262
     19 O          -0.4263   59.7813   80.4183 O.2     1  UNL1       -0.2748
     20 C          -2.2489   60.1449   77.2878 C.3     1  UNL1        0.1199
     21 H          -3.9986   54.7038   75.5970 H       1  UNL1        0.2108
     22 C          -7.9678   57.2873   77.0147 C.3     1  UNL1        0.2526
     23 O          -6.7973   56.6828   77.5686 O.3     1  UNL1       -0.4684
     24 C          -2.1814   61.3752   79.9859 C.3     1  UNL1        0.0900
     25 C          -1.6928   62.8047   79.7176 C.3     1  UNL1        0.0360
     26 C          -2.8026   63.7493   79.3020 C.ar    1  UNL1       -0.0205
     27 C          -2.6306   65.1259   79.4799 C.ar    1  UNL1       -0.0042
     28 C          -3.6150   66.0141   79.0720 C.ar    1  UNL1        0.0009
     29 C          -4.7941   65.5345   78.5004 C.ar    1  UNL1        0.0146
     30 C          -4.9993   64.1717   78.2669 C.ar    1  UNL1        0.0480
     31 C          -3.9895   63.2845   78.6965 C.ar    1  UNL1        0.0104
     32 N          -6.1110   63.6671   77.5489 N.pl3   1  UNL1       -0.3112
     33 H          -6.0092   63.7945   76.5431 H       1  UNL1        0.1523
     34 C          -7.1505   62.7455   77.8724 C.ar    1  UNL1        0.0697
     35 C          -7.6478   62.4949   79.1705 C.ar    1  UNL1        0.0719
     36 CL         -7.3225   63.5006   80.5473 Cl      1  UNL1       -0.0809
     37 C          -8.6046   61.4921   79.4118 C.ar    1  UNL1        0.0127
     38 C          -9.1387   60.7445   78.3706 C.ar    1  UNL1        0.0018
     39 C          -8.7250   61.0067   77.0722 C.ar    1  UNL1        0.0127
     40 C          -7.7593   61.9986   76.8276 C.ar    1  UNL1        0.0719
     41 CL         -7.3956   62.3347   75.1636 Cl      1  UNL1       -0.0809
@<TRIPOS>BOND
     1    22    23    1
     2    23     1    1
     3     1     2   ar
     4     1     6   ar
     5     2     3   ar
     6     3     4   ar
     7     4     5   ar
     8     4    20    1
     9     5     6   ar
    10     5    14    1
    11     6     7    1
    12     7     8    1
    13     8     9    1
    14     8    14    1
    15     9    10    1
    16    10    11    1
    17    10    12    1
    18    11    21    1
    19    12    13    2
    20    14    13    1
    21    14    15    1
    22    15    16    1
    23    16    17    1
    24    17    18   am
    25    17    20    1
    26    18    19    2
    27    18    24    1
    28    24    25    1
    29    25    26    1
    30    26    27   ar
    31    26    31   ar
    32    27    28   ar
    33    28    29   ar
    34    29    30   ar
    35    30    32    1
    36    30    31   ar
    37    32    34    1
    38    32    33    1
    39    34    35   ar
    40    34    40   ar
    41    35    36    1
    42    35    37   ar
    43    37    38   ar
    44    38    39   ar
    45    39    40   ar
    46    40    41    1
#	Name:			CHEMBL3604350
#	Creating user name:	trannguyen
#	Creation time:		Tue Feb  8 17:54:08 2022


#	Modifying user name:	trannguyen
#	Modification time:	Tue Feb  8 17:54:08 2022

@<TRIPOS>MOLECULE
CHEMBL3604350
 27 30 0 0 0
SMALL
GASTEIGER

@<TRIPOS>ATOM
      1 N           3.3323   68.7769   66.6714 N.3     1  UNL1       -0.2596
      2 C           4.0107   69.5819   65.6354 C.3     1  UNL1        0.0737
      3 C           4.7670   68.8275   64.5301 C.3     1  UNL1        0.0290
      4 C           3.8748   68.0046   63.5817 C.3     1  UNL1        0.0780
      5 C           2.7051   68.7992   62.9820 C.2     1  UNL1       -0.0213
      6 C           3.0008   69.5647   61.9087 C.2     1  UNL1       -0.0015
      7 C           3.5686   68.8459   60.6988 C.3     1  UNL1        0.1358
      8 O           2.5958   68.8108   59.6691 O.3     1  UNL1       -0.3799
      9 C           4.0041   67.4200   61.0417 C.3     1  UNL1        0.0779
     10 C           4.6989   67.3546   62.4175 C.3     1  UNL1        0.1761
     11 O           4.9134   65.9585   62.6999 O.3     1  UNL1       -0.4757
     12 C           4.0752   65.6470   63.7365 C.ar    1  UNL1        0.1682
     13 C           3.9101   64.3781   64.2657 C.ar    1  UNL1        0.1721
     14 C           3.1553   64.2648   65.4383 C.ar    1  UNL1        0.0397
     15 C           2.5844   65.3978   66.0492 C.ar    1  UNL1        0.0001
     16 C           2.7488   66.6726   65.4899 C.ar    1  UNL1       -0.0066
     17 C           3.4712   66.7606   64.3043 C.ar    1  UNL1        0.0187
     18 C           2.2392   67.9219   66.1656 C.3     1  UNL1        0.0994
     19 H           2.0469   69.6087   59.7532 H       1  UNL1        0.2108
     20 O           4.4589   63.2201   63.7897 O.3     1  UNL1       -0.4684
     21 C           5.8816   63.1386   63.8482 C.3     1  UNL1        0.2526
     22 C           2.8340   69.6643   67.7633 C.3     1  UNL1        0.1835
     23 C           3.9367   70.2640   68.6471 C.2     1  UNL1        0.3336
     24 O           3.7961   70.7114   69.7711 O.2     1  UNL1       -0.2485
     25 O           5.1363   70.2163   67.9905 O.3     1  UNL1       -0.4475
     26 C           7.2013   70.8807   69.0905 C.3     1  UNL1        0.0513
     27 C           6.0000   71.3279   68.2751 C.3     1  UNL1        0.2086
@<TRIPOS>BOND
     1    26    27    1
     2    27    25    1
     3    25    23    1
     4    23    24    2
     5    23    22    1
     6    22     1    1
     7     1     2    1
     8     1    18    1
     9     2     3    1
    10     4     3    1
    11     4     5    1
    12     4    10    1
    13     4    17    1
    14     5     6    2
    15     6     7    1
    16     7     9    1
    17     7     8    1
    18     8    19    1
    19     9    10    1
    20    10    11    1
    21    11    12    1
    22    12    13   ar
    23    12    17   ar
    24    13    20    1
    25    13    14   ar
    26    20    21    1
    27    14    15   ar
    28    15    16   ar
    29    16    17   ar
    30    16    18    1
#	Name:			CHEMBL3604351
#	Creating user name:	trannguyen
#	Creation time:		Tue Feb  8 17:54:08 2022


#	Modifying user name:	trannguyen
#	Modification time:	Tue Feb  8 17:54:08 2022

@<TRIPOS>MOLECULE
CHEMBL3604351
 28 31 0 0 0
SMALL
GASTEIGER

@<TRIPOS>ATOM
      1 N          -4.9245   57.4247   77.1831 N.3     1  UNL1       -0.2684
      2 C          -4.3152   58.4151   78.0976 C.3     1  UNL1        0.0732
      3 C          -2.8470   58.2720   78.5255 C.3     1  UNL1        0.0290
      4 C          -1.8271   58.4417   77.3907 C.3     1  UNL1        0.0780
      5 C          -2.0571   59.6997   76.5427 C.2     1  UNL1       -0.0213
      6 C          -1.5312   60.8408   77.0392 C.2     1  UNL1       -0.0015
      7 C          -0.0219   60.8611   77.1997 C.3     1  UNL1        0.1358
      8 O           0.5520   61.6366   76.1619 O.3     1  UNL1       -0.3799
      9 C           0.5659   59.4455   77.1716 C.3     1  UNL1        0.0779
     10 C          -0.3447   58.4302   77.8985 C.3     1  UNL1        0.1761
     11 O           0.2295   57.1241   77.6814 O.3     1  UNL1       -0.4757
     12 C          -0.6324   56.4654   76.8425 C.ar    1  UNL1        0.1682
     13 C          -0.4246   55.2008   76.3146 C.ar    1  UNL1        0.1721
     14 C          -1.4794   54.6261   75.5966 C.ar    1  UNL1        0.0397
     15 C          -2.7058   55.2977   75.4351 C.ar    1  UNL1        0.0001
     16 C          -2.8979   56.5806   75.9654 C.ar    1  UNL1       -0.0066
     17 C          -1.8216   57.1564   76.6318 C.ar    1  UNL1        0.0187
     18 C          -4.2250   57.2978   75.8805 C.3     1  UNL1        0.0990
     19 H          -0.0849   62.3306   75.9212 H       1  UNL1        0.2108
     20 O           0.6917   54.4206   76.4242 O.3     1  UNL1       -0.4684
     21 C           0.6768   53.4221   77.4380 C.3     1  UNL1        0.2526
     22 C          -6.3343   57.8320   76.9155 C.3     1  UNL1        0.0841
     23 C          -6.5935   59.3373   77.0574 C.3     1  UNL1        0.1268
     24 C          -6.7229   59.9896   75.7096 C.2     1  UNL1        0.3184
     25 O          -5.8035   60.1690   74.9169 O.2     1  UNL1       -0.2501
     26 O          -8.0225   60.3338   75.4938 O.3     1  UNL1       -0.4485
     27 C         -10.2110   60.1811   76.5547 C.3     1  UNL1        0.0513
     28 C          -8.7785   60.6666   76.6649 C.3     1  UNL1        0.2086
@<TRIPOS>BOND
     1    27    28    1
     2    28    26    1
     3    26    24    1
     4    24    25    2
     5    24    23    1
     6    23    22    1
     7    22     1    1
     8     1     2    1
     9     1    18    1
    10     2     3    1
    11     4     3    1
    12     4     5    1
    13     4    10    1
    14     4    17    1
    15     5     6    2
    16     6     7    1
    17     7     9    1
    18     7     8    1
    19     8    19    1
    20     9    10    1
    21    10    11    1
    22    11    12    1
    23    12    13   ar
    24    12    17   ar
    25    13    20    1
    26    13    14   ar
    27    20    21    1
    28    14    15   ar
    29    15    16   ar
    30    16    17   ar
    31    16    18    1
#	Name:			CHEMBL3604352
#	Creating user name:	trannguyen
#	Creation time:		Tue Feb  8 17:54:08 2022


#	Modifying user name:	trannguyen
#	Modification time:	Tue Feb  8 17:54:08 2022

@<TRIPOS>MOLECULE
CHEMBL3604352
 30 34 0 0 0
SMALL
GASTEIGER

@<TRIPOS>ATOM
      1 C          -6.4302   56.8019   77.7208 C.ar    1  UNL1        0.1721
      2 C          -6.6162   58.0508   77.1274 C.ar    1  UNL1        0.0398
      3 C          -5.5312   58.7641   76.5816 C.ar    1  UNL1        0.0004
      4 C          -4.2269   58.2377   76.5919 C.ar    1  UNL1       -0.0028
      5 C          -4.0648   56.9698   77.1474 C.ar    1  UNL1        0.0191
      6 C          -5.1472   56.2822   77.7061 C.ar    1  UNL1        0.1682
      7 O          -4.8028   55.0379   78.1737 O.3     1  UNL1       -0.4757
      8 C          -3.3630   55.0935   78.2792 C.3     1  UNL1        0.1761
      9 C          -2.8093   53.6748   78.1417 C.3     1  UNL1        0.0779
     10 C          -3.0063   53.1084   76.7356 C.3     1  UNL1        0.1358
     11 O          -4.3468   52.6753   76.5498 O.3     1  UNL1       -0.3799
     12 C          -2.7010   54.0977   75.6585 C.2     1  UNL1       -0.0015
     13 C          -2.6083   55.4214   75.8611 C.2     1  UNL1       -0.0212
     14 C          -2.8433   56.0977   77.2047 C.3     1  UNL1        0.0783
     15 C          -1.5907   56.8223   77.7380 C.3     1  UNL1        0.0332
     16 C          -1.0334   57.9138   76.8214 C.3     1  UNL1        0.0945
     17 N          -1.8947   59.0929   76.7691 N.am    1  UNL1       -0.2743
     18 C          -1.6834   60.2732   77.4812 C.2     1  UNL1        0.2423
     19 O          -2.4576   61.2270   77.3987 O.2     1  UNL1       -0.2733
     20 C          -3.0963   58.9963   75.9387 C.3     1  UNL1        0.1200
     21 H          -4.9240   53.4375   76.7502 H       1  UNL1        0.2108
     22 C          -7.9908   56.7052   79.4923 C.3     1  UNL1        0.2526
     23 O          -7.5481   56.2062   78.2319 O.3     1  UNL1       -0.4684
     24 C          -0.4416   60.3999   78.3892 C.3     1  UNL1        0.1588
     25 N           0.4667   61.4866   77.9503 N.3     1  UNL1       -0.2607
     26 C           1.7028   61.5751   78.7719 C.3     1  UNL1        0.1050
     27 C           2.7011   60.4268   78.5427 C.3     1  UNL1        0.1595
     28 O           3.0762   60.3446   77.1612 O.3     1  UNL1       -0.3508
     29 C           1.9217   60.1564   76.3362 C.3     1  UNL1        0.1595
     30 C           0.8896   61.2832   76.5416 C.3     1  UNL1        0.1050
@<TRIPOS>BOND
     1    22    23    1
     2    23     1    1
     3     1     2   ar
     4     1     6   ar
     5     2     3   ar
     6     3     4   ar
     7     4     5   ar
     8     4    20    1
     9     5     6   ar
    10     5    14    1
    11     6     7    1
    12     7     8    1
    13     8     9    1
    14     8    14    1
    15     9    10    1
    16    10    11    1
    17    10    12    1
    18    11    21    1
    19    12    13    2
    20    14    13    1
    21    14    15    1
    22    15    16    1
    23    16    17    1
    24    17    18   am
    25    17    20    1
    26    18    19    2
    27    18    24    1
    28    24    25    1
    29    25    26    1
    30    25    30    1
    31    26    27    1
    32    27    28    1
    33    28    29    1
    34    29    30    1
#	Name:			CHEMBL3604353
#	Creating user name:	trannguyen
#	Creation time:		Tue Feb  8 17:54:08 2022


#	Modifying user name:	trannguyen
#	Modification time:	Tue Feb  8 17:54:08 2022

@<TRIPOS>MOLECULE
CHEMBL3604353
 30 34 0 0 0
SMALL
GASTEIGER

@<TRIPOS>ATOM
      1 C          -4.0576   59.8788   77.6915 C.ar    1  UNL1        0.1721
      2 C          -4.2044   58.5275   78.0089 C.ar    1  UNL1        0.0398
      3 C          -3.1069   57.7562   78.4158 C.ar    1  UNL1        0.0004
      4 C          -1.8259   58.3206   78.5354 C.ar    1  UNL1       -0.0028
      5 C          -1.6812   59.6672   78.2119 C.ar    1  UNL1        0.0191
      6 C          -2.7814   60.4155   77.7773 C.ar    1  UNL1        0.1682
      7 O          -2.4429   61.7129   77.4716 O.3     1  UNL1       -0.4757
      8 C          -1.0024   61.6581   77.3175 C.3     1  UNL1        0.1761
      9 C          -0.4262   63.0512   77.5657 C.3     1  UNL1        0.0779
     10 C          -0.6171   63.5009   79.0138 C.3     1  UNL1        0.1358
     11 O          -1.9464   63.9624   79.2195 O.3     1  UNL1       -0.3799
     12 C          -0.3649   62.4132   80.0102 C.2     1  UNL1       -0.0015
     13 C          -0.2847   61.1085   79.6984 C.2     1  UNL1       -0.0212
     14 C          -0.4713   60.5595   78.2882 C.3     1  UNL1        0.0783
     15 C           0.8391   59.9587   77.7363 C.3     1  UNL1        0.0332
     16 C           1.3481   58.7096   78.4628 C.3     1  UNL1        0.0948
     17 N           0.5045   57.5347   78.2402 N.am    1  UNL1       -0.2720
     18 C           0.7377   56.7866   77.0752 C.2     1  UNL1        0.2493
     19 O           1.6206   57.1135   76.2666 O.2     1  UNL1       -0.2699
     20 C          -0.6994   57.4857   79.0682 C.3     1  UNL1        0.1202
     21 H          -2.5388   63.2333   78.9532 H       1  UNL1        0.2108
     22 C          -0.0603   55.5717   76.7269 C.ar    1  UNL1        0.0536
     23 C          -1.1741   55.7210   75.8827 C.ar    1  UNL1        0.0050
     24 C          -1.9417   54.6137   75.5017 C.ar    1  UNL1        0.0068
     25 C          -1.6104   53.3490   75.9805 C.ar    1  UNL1        0.0346
     26 BR         -2.6603   51.8506   75.5080 Br      1  UNL1       -0.0490
     27 C          -0.4865   53.1764   76.7834 C.ar    1  UNL1        0.0068
     28 C           0.3141   54.2770   77.1078 C.ar    1  UNL1        0.0050
     29 C          -6.0646   59.8019   76.4237 C.3     1  UNL1        0.2526
     30 O          -5.2134   60.5018   77.3211 O.3     1  UNL1       -0.4684
@<TRIPOS>BOND
     1    29    30    1
     2    30     1    1
     3     1     2   ar
     4     1     6   ar
     5     2     3   ar
     6     3     4   ar
     7     4     5   ar
     8     4    20    1
     9     5     6   ar
    10     5    14    1
    11     6     7    1
    12     7     8    1
    13     8     9    1
    14     8    14    1
    15     9    10    1
    16    10    11    1
    17    10    12    1
    18    11    21    1
    19    12    13    2
    20    14    13    1
    21    14    15    1
    22    15    16    1
    23    16    17    1
    24    17    18   am
    25    17    20    1
    26    18    19    2
    27    18    22    1
    28    22    23   ar
    29    22    28   ar
    30    23    24   ar
    31    24    25   ar
    32    25    26    1
    33    25    27   ar
    34    27    28   ar
#	Name:			CHEMBL3604354
#	Creating user name:	trannguyen
#	Creation time:		Tue Feb  8 17:54:08 2022


#	Modifying user name:	trannguyen
#	Modification time:	Tue Feb  8 17:54:08 2022

@<TRIPOS>MOLECULE
CHEMBL3604354
 29 32 0 0 0
SMALL
GASTEIGER

@<TRIPOS>ATOM
      1 C           2.8596   69.1411   67.9692 C.2     1  UNL1        0.2423
      2 O           2.4868   68.4341   68.9010 O.2     1  UNL1       -0.2733
      3 N           2.6126   68.7925   66.6408 N.am    1  UNL1       -0.2743
      4 C           2.9408   69.6381   65.4966 C.3     1  UNL1        0.0945
      5 C           3.9417   69.0294   64.5191 C.3     1  UNL1        0.0332
      6 C           3.4149   67.8329   63.7054 C.3     1  UNL1        0.0783
      7 C           2.1427   68.2215   62.9717 C.2     1  UNL1       -0.0212
      8 C           2.1758   68.7402   61.7337 C.2     1  UNL1       -0.0015
      9 C           3.4641   68.8284   60.9790 C.3     1  UNL1        0.1358
     10 O           3.1826   68.9064   59.5919 O.3     1  UNL1       -0.3799
     11 C           4.2754   67.5706   61.2411 C.3     1  UNL1        0.0779
     12 C           4.5316   67.3329   62.7323 C.3     1  UNL1        0.1761
     13 O           4.6969   65.9064   62.8860 O.3     1  UNL1       -0.4757
     14 C           4.0109   65.5615   64.0164 C.ar    1  UNL1        0.1682
     15 C           4.0151   64.2951   64.5807 C.ar    1  UNL1        0.1721
     16 C           3.2734   64.1118   65.7494 C.ar    1  UNL1        0.0398
     17 C           2.5822   65.1835   66.3439 C.ar    1  UNL1        0.0004
     18 C           2.5775   66.4609   65.7572 C.ar    1  UNL1       -0.0028
     19 C           3.2791   66.6143   64.5618 C.ar    1  UNL1        0.0191
     20 C           1.8034   67.5950   66.3841 C.3     1  UNL1        0.1200
     21 H           2.7059   69.7396   59.4411 H       1  UNL1        0.2108
     22 O           4.6359   63.1790   64.0940 O.3     1  UNL1       -0.4684
     23 C           6.0329   63.2961   63.8424 C.3     1  UNL1        0.2526
     24 C           3.6893   70.4046   68.2815 C.3     1  UNL1        0.1587
     25 N           5.1647   70.2192   68.3797 N.3     1  UNL1       -0.2651
     26 C           7.1373   70.6200   69.9550 C.3     1  UNL1        0.0188
     27 C           5.6243   70.5840   69.7357 C.3     1  UNL1        0.0726
     28 C           5.9291   70.8834   67.3146 C.3     1  UNL1        0.0726
     29 C           6.6455   69.9032   66.3745 C.3     1  UNL1        0.0188
@<TRIPOS>BOND
     1    26    27    1
     2    27    25    1
     3    25    28    1
     4    25    24    1
     5    28    29    1
     6    24     1    1
     7     1     2    2
     8     1     3   am
     9     3     4    1
    10     3    20    1
    11     4     5    1
    12     6     5    1
    13     6     7    1
    14     6    12    1
    15     6    19    1
    16     7     8    2
    17     8     9    1
    18     9    11    1
    19     9    10    1
    20    10    21    1
    21    11    12    1
    22    12    13    1
    23    13    14    1
    24    14    15   ar
    25    14    19   ar
    26    15    22    1
    27    15    16   ar
    28    22    23    1
    29    16    17   ar
    30    17    18   ar
    31    18    19   ar
    32    18    20    1
#	Name:			CHEMBL3604355
#	Creating user name:	trannguyen
#	Creation time:		Tue Feb  8 17:54:08 2022


#	Modifying user name:	trannguyen
#	Modification time:	Tue Feb  8 17:54:08 2022

@<TRIPOS>MOLECULE
CHEMBL3604355
 25 28 0 0 0
SMALL
GASTEIGER

@<TRIPOS>ATOM
      1 C           3.7739   61.0192   79.5365 C.ar    1  UNL1        0.1721
      2 C           3.3683   61.7811   80.6340 C.ar    1  UNL1        0.0397
      3 C           2.0576   62.2907   80.7228 C.ar    1  UNL1        0.0001
      4 C           1.1103   62.0587   79.7089 C.ar    1  UNL1       -0.0066
      5 C           1.5281   61.2894   78.6280 C.ar    1  UNL1        0.0187
      6 C           2.8305   60.7914   78.5499 C.ar    1  UNL1        0.1682
      7 O           3.0438   60.0463   77.4168 O.3     1  UNL1       -0.4757
      8 C           1.9607   60.4220   76.5406 C.3     1  UNL1        0.1761
      9 C           1.7013   59.2547   75.5884 C.3     1  UNL1        0.0779
     10 C           1.0802   58.0488   76.2934 C.3     1  UNL1        0.1358
     11 O           2.0721   57.2985   76.9815 O.3     1  UNL1       -0.3799
     12 C           0.0254   58.4190   77.2844 C.2     1  UNL1       -0.0015
     13 C          -0.1416   59.6557   77.7769 C.2     1  UNL1       -0.0213
     14 C           0.7507   60.8347   77.4318 C.3     1  UNL1        0.0780
     15 C          -0.0115   61.9795   76.7583 C.3     1  UNL1        0.0290
     16 C          -1.1664   62.5873   77.5562 C.3     1  UNL1        0.0732
     17 N          -0.7672   63.4101   78.7148 N.3     1  UNL1       -0.2680
     18 C          -0.3077   62.5637   79.8444 C.3     1  UNL1        0.0990
     19 H           2.5897   57.9311   77.5152 H       1  UNL1        0.2108
     20 C           5.9514   61.2750   80.4456 C.3     1  UNL1        0.2526
     21 O           5.0713   60.5916   79.5572 O.3     1  UNL1       -0.4684
     22 C          -1.9078   64.2496   79.1722 C.3     1  UNL1        0.0887
     23 C          -3.0479   64.3895   78.1479 C.3     1  UNL1        0.1227
     24 C          -3.2475   65.7921   77.7784 C.1     1  UNL1        0.0746
     25 N          -3.3836   66.9156   77.5006 N.1     1  UNL1       -0.1958
@<TRIPOS>BOND
     1    20    21    1
     2    21     1    1
     3     1     2   ar
     4     1     6   ar
     5     2     3   ar
     6     3     4   ar
     7     4     5   ar
     8     4    18    1
     9     5     6   ar
    10     5    14    1
    11     6     7    1
    12     7     8    1
    13     8     9    1
    14     8    14    1
    15     9    10    1
    16    10    11    1
    17    10    12    1
    18    11    19    1
    19    12    13    2
    20    14    13    1
    21    14    15    1
    22    15    16    1
    23    16    17    1
    24    17    22    1
    25    17    18    1
    26    22    23    1
    27    23    24    1
    28    24    25    3
#	Name:			CHEMBL3604356
#	Creating user name:	trannguyen
#	Creation time:		Tue Feb  8 17:54:08 2022


#	Modifying user name:	trannguyen
#	Modification time:	Tue Feb  8 17:54:08 2022

@<TRIPOS>MOLECULE
CHEMBL3604356
 27 30 0 0 0
SMALL
GASTEIGER

@<TRIPOS>ATOM
      1 C           4.0005   64.7173   63.8328 C.ar    1  UNL1        0.1721
      2 C           3.3106   64.3398   64.9882 C.ar    1  UNL1        0.0397
      3 C           2.7723   65.3001   65.8632 C.ar    1  UNL1        0.0001
      4 C           2.9108   66.6742   65.6097 C.ar    1  UNL1       -0.0066
      5 C           3.6092   67.0355   64.4622 C.ar    1  UNL1        0.0187
      6 C           4.1401   66.0751   63.5980 C.ar    1  UNL1        0.1682
      7 O           4.7720   66.6370   62.5140 O.3     1  UNL1       -0.4757
      8 C           5.0090   68.0049   62.9240 C.3     1  UNL1        0.1761
      9 C           5.0797   68.8910   61.6799 C.3     1  UNL1        0.0779
     10 C           3.7314   68.9982   60.9689 C.3     1  UNL1        0.1358
     11 O           3.4641   67.8216   60.2167 O.3     1  UNL1       -0.3799
     12 C           2.5896   69.2027   61.9130 C.2     1  UNL1       -0.0015
     13 C           2.6601   68.9711   63.2287 C.2     1  UNL1       -0.0213
     14 C           3.8879   68.4060   63.9295 C.3     1  UNL1        0.0780
     15 C           4.4732   69.3540   64.9872 C.3     1  UNL1        0.0290
     16 C           3.5343   69.7624   66.1236 C.3     1  UNL1        0.0732
     17 N           3.1801   68.6900   67.0666 N.3     1  UNL1       -0.2689
     18 C           2.2547   67.6939   66.5063 C.3     1  UNL1        0.0989
     19 H           3.6009   67.0647   60.8188 H       1  UNL1        0.2108
     20 C           5.3701   62.7797   63.7114 C.3     1  UNL1        0.2526
     21 O           4.4708   63.6817   63.0778 O.3     1  UNL1       -0.4684
     22 C           2.6320   69.2685   68.3175 C.3     1  UNL1        0.0738
     23 C           3.2335   70.6228   68.7320 C.3     1  UNL1        0.0347
     24 C           4.4820   70.4791   69.6104 C.3     1  UNL1        0.0736
     25 N           5.7560   70.6111   68.8861 N.3     1  UNL1       -0.2703
     26 C           5.8113   71.8266   68.0713 C.3     1  UNL1        0.0897
     27 C           6.8720   70.5976   69.8348 C.3     1  UNL1        0.0897
@<TRIPOS>BOND
     1    20    21    1
     2    21     1    1
     3     1     2   ar
     4     1     6   ar
     5     2     3   ar
     6     3     4   ar
     7     4     5   ar
     8     4    18    1
     9     5     6   ar
    10     5    14    1
    11     6     7    1
    12     7     8    1
    13     8     9    1
    14     8    14    1
    15     9    10    1
    16    10    11    1
    17    10    12    1
    18    11    19    1
    19    12    13    2
    20    14    13    1
    21    14    15    1
    22    15    16    1
    23    16    17    1
    24    17    22    1
    25    17    18    1
    26    22    23    1
    27    23    24    1
    28    24    25    1
    29    25    26    1
    30    25    27    1
#	Name:			CHEMBL3604357
#	Creating user name:	trannguyen
#	Creation time:		Tue Feb  8 17:54:08 2022


#	Modifying user name:	trannguyen
#	Modification time:	Tue Feb  8 17:54:08 2022

@<TRIPOS>MOLECULE
CHEMBL3604357
 31 35 0 0 0
SMALL
GASTEIGER

@<TRIPOS>ATOM
      1 C          -1.4570   60.6916   77.0834 C.ar    1  UNL1        0.1721
      2 C          -2.2340   61.3811   78.0165 C.ar    1  UNL1        0.0398
      3 C          -3.3871   60.8006   78.5709 C.ar    1  UNL1        0.0004
      4 C          -3.7820   59.4975   78.2264 C.ar    1  UNL1       -0.0027
      5 C          -2.9931   58.8120   77.3035 C.ar    1  UNL1        0.0191
      6 C          -1.8593   59.4105   76.7423 C.ar    1  UNL1        0.1682
      7 O          -1.1943   58.5729   75.8767 O.3     1  UNL1       -0.4757
      8 C          -2.1925   57.5748   75.5511 C.3     1  UNL1        0.1761
      9 C          -1.5024   56.2882   75.1000 C.3     1  UNL1        0.0779
     10 C          -0.7378   55.6078   76.2353 C.3     1  UNL1        0.1358
     11 O           0.5254   56.2309   76.4248 O.3     1  UNL1       -0.3799
     12 C          -1.4537   55.6431   77.5480 C.2     1  UNL1       -0.0015
     13 C          -2.5171   56.4217   77.8035 C.2     1  UNL1       -0.0212
     14 C          -3.1102   57.4004   76.7991 C.3     1  UNL1        0.0783
     15 C          -4.5194   56.9707   76.3436 C.3     1  UNL1        0.0333
     16 C          -5.5898   56.9572   77.4364 C.3     1  UNL1        0.0960
     17 N          -5.9177   58.2910   77.9317 N.am    1  UNL1       -0.2601
     18 C          -6.8572   59.0307   77.2156 C.2     1  UNL1        0.3042
     19 O          -7.4192   58.6018   76.2191 O.2     1  UNL1       -0.2526
     20 N          -7.0915   60.2925   77.7085 N.am    1  UNL1       -0.2904
     21 C          -4.9767   58.8659   78.8892 C.3     1  UNL1        0.1215
     22 H           0.3506   57.1781   76.5857 H       1  UNL1        0.2108
     23 H          -7.0402   60.3618   78.7099 H       1  UNL1        0.1509
     24 C          -8.0507   61.1999   77.0821 C.3     1  UNL1        0.0730
     25 C          -9.1912   61.5421   78.0502 C.3     1  UNL1        0.0196
     26 C          -8.7279   62.4229   79.2134 C.3     1  UNL1        0.0017
     27 C          -7.9900   63.6736   78.7418 C.3     1  UNL1        0.0001
     28 C          -6.8713   63.3610   77.7526 C.3     1  UNL1        0.0017
     29 C          -7.3536   62.4793   76.6019 C.3     1  UNL1        0.0196
     30 C          -0.5294   62.7555   76.4144 C.3     1  UNL1        0.2526
     31 O          -0.3560   61.3588   76.6300 O.3     1  UNL1       -0.4684
@<TRIPOS>BOND
     1    30    31    1
     2    31     1    1
     3     1     2   ar
     4     1     6   ar
     5     2     3   ar
     6     3     4   ar
     7     4     5   ar
     8     4    21    1
     9     5     6   ar
    10     5    14    1
    11     6     7    1
    12     7     8    1
    13     8     9    1
    14     8    14    1
    15     9    10    1
    16    10    11    1
    17    10    12    1
    18    11    22    1
    19    12    13    2
    20    14    13    1
    21    14    15    1
    22    15    16    1
    23    16    17    1
    24    17    18   am
    25    17    21    1
    26    18    19    2
    27    18    20   am
    28    20    24    1
    29    20    23    1
    30    24    25    1
    31    24    29    1
    32    25    26    1
    33    26    27    1
    34    27    28    1
    35    28    29    1
#	Name:			CHEMBL3604358
#	Creating user name:	trannguyen
#	Creation time:		Tue Feb  8 17:54:08 2022


#	Modifying user name:	trannguyen
#	Modification time:	Tue Feb  8 17:54:08 2022

@<TRIPOS>MOLECULE
CHEMBL3604358
 25 28 0 0 0
SMALL
GASTEIGER

@<TRIPOS>ATOM
      1 C           1.6638   59.4655   75.6112 C.ar    1  UNL1        0.1721
      2 C           2.1027   60.4978   76.4439 C.ar    1  UNL1        0.0398
      3 C           1.3985   60.8428   77.6090 C.ar    1  UNL1        0.0004
      4 C           0.2259   60.1631   77.9750 C.ar    1  UNL1       -0.0028
      5 C          -0.2084   59.1358   77.1385 C.ar    1  UNL1        0.0191
      6 C           0.5001   58.8079   75.9787 C.ar    1  UNL1        0.1682
      7 O          -0.0640   57.7594   75.2945 O.3     1  UNL1       -0.4757
      8 C          -1.4009   57.6607   75.8391 C.3     1  UNL1        0.1761
      9 C          -1.8793   56.2152   75.7014 C.3     1  UNL1        0.0779
     10 C          -1.0829   55.2585   76.5892 C.3     1  UNL1        0.1358
     11 O           0.1905   54.9856   76.0202 O.3     1  UNL1       -0.3799
     12 C          -0.8532   55.7949   77.9654 C.2     1  UNL1       -0.0015
     13 C          -0.9986   57.0873   78.2991 C.2     1  UNL1       -0.0212
     14 C          -1.3625   58.1849   77.3080 C.3     1  UNL1        0.0783
     15 C          -2.7129   58.8516   77.6445 C.3     1  UNL1        0.0332
     16 C          -2.7736   59.5811   78.9878 C.3     1  UNL1        0.0945
     17 N          -1.9122   60.7603   79.0311 N.am    1  UNL1       -0.2744
     18 C          -2.4375   61.9799   78.6087 C.2     1  UNL1        0.2425
     19 O          -3.6079   62.0727   78.2127 O.2     1  UNL1       -0.2735
     20 C          -0.4895   60.5144   79.2506 C.3     1  UNL1        0.1200
     21 H           0.6259   55.8475   75.8756 H       1  UNL1        0.2108
     22 C           3.3609   60.2637   74.1494 C.3     1  UNL1        0.2526
     23 O           2.4533   59.2336   74.5224 O.3     1  UNL1       -0.4684
     24 C          -1.5533   63.2145   78.6052 C.3     1  UNL1        0.1796
     25 CL         -0.9725   63.5541   76.9616 Cl      1  UNL1       -0.1033
@<TRIPOS>BOND
     1    22    23    1
     2    23     1    1
     3     1     2   ar
     4     1     6   ar
     5     2     3   ar
     6     3     4   ar
     7     4     5   ar
     8     4    20    1
     9     5     6   ar
    10     5    14    1
    11     6     7    1
    12     7     8    1
    13     8     9    1
    14     8    14    1
    15     9    10    1
    16    10    11    1
    17    10    12    1
    18    11    21    1
    19    12    13    2
    20    14    13    1
    21    14    15    1
    22    15    16    1
    23    16    17    1
    24    17    18   am
    25    17    20    1
    26    18    19    2
    27    18    24    1
    28    24    25    1
#	Name:			CHEMBL3633858
#	Creating user name:	trannguyen
#	Creation time:		Tue Feb  8 17:54:08 2022


#	Modifying user name:	trannguyen
#	Modification time:	Tue Feb  8 17:54:08 2022

@<TRIPOS>MOLECULE
CHEMBL3633858
 29 32 0 0 0
SMALL
GASTEIGER

@<TRIPOS>ATOM
      1 C          -7.1332   64.1897   78.0303 C.2     1  UNL1        0.0144
      2 C          -8.0884   65.1967   78.1860 C.2     1  UNL1       -0.0016
      3 C          -7.7479   66.3895   78.8101 C.2     1  UNL1       -0.0047
      4 C          -6.4452   66.5783   79.2440 C.3     1  UNL1        0.1177
      5 N          -5.4975   65.6380   79.0222 N.pl3   1  UNL1       -0.2986
      6 C          -5.8259   64.4523   78.4535 C.2     1  UNL1        0.0618
      7 C          -7.6275   62.6831   76.1292 C.2     1  UNL1        0.0453
      8 C          -7.4648   62.8786   77.4487 C.2     1  UNL1        0.0046
      9 O          -9.0393   61.2086   74.9441 O.2     1  UNL1       -0.2833
     10 C          -7.9948   61.3414   75.5746 C.2     1  UNL1        0.2299
     11 C          -7.0792   60.2463   75.8364 C.ar    1  UNL1        0.1840
     12 C          -7.1944   59.1555   76.6802 C.ar    1  UNL1        0.0438
     13 C          -5.9971   58.4028   76.5546 C.ar    1  UNL1        0.0377
     14 C          -5.4837   57.2226   77.1205 C.ar    1  UNL1        0.0031
     15 C          -4.2148   56.7796   76.7175 C.ar    1  UNL1        0.0002
     16 C          -3.4698   57.4892   75.7716 C.ar    1  UNL1        0.0031
     17 C          -3.9616   58.6677   75.2011 C.ar    1  UNL1        0.0375
     18 C          -5.2220   59.0826   75.6245 C.ar    1  UNL1        0.1454
     19 O          -5.8688   60.1993   75.1958 O.2     1  UNL1       -0.4503
     20 C          -4.1254   65.8554   79.5443 C.3     1  UNL1        0.1180
     21 C          -3.1056   65.0802   78.7276 C.ar    1  UNL1       -0.0023
     22 C          -2.3454   64.0491   79.3055 C.ar    1  UNL1       -0.0010
     23 C          -1.4413   63.3124   78.5322 C.ar    1  UNL1        0.0196
     24 C          -1.2855   63.6107   77.1723 C.ar    1  UNL1        0.0918
     25 C          -2.0184   64.6498   76.5877 C.ar    1  UNL1        0.0196
     26 C          -2.9219   65.3807   77.3660 C.ar    1  UNL1       -0.0010
     27 N          -0.3558   62.8211   76.3529 N.pl3   1  UNL1       -0.1853
     28 O          -0.3838   61.5889   76.4795 O.2     1  UNL1       -0.1725
     29 O           0.3921   63.4338   75.5786 O.co2   1  UNL1       -0.7770
@<TRIPOS>UNITY_ATOM_ATTR
29 1
charge -1
@<TRIPOS>BOND
     1     9    10    2
     2    10     7    1
     3    10    11    1
     4     7     8    2
     5     8     1    1
     6     1     2    1
     7     1     6    2
     8     2     3    2
     9     3     4    1
    10     4     5    1
    11     5    20    1
    12     5     6    1
    13    20    21    1
    14    21    22   ar
    15    21    26   ar
    16    22    23   ar
    17    23    24   ar
    18    24    27    1
    19    24    25   ar
    20    27    28    2
    21    27    29    1
    22    25    26   ar
    23    11    12   ar
    24    11    19   ar
    25    12    13   ar
    26    13    14   ar
    27    13    18   ar
    28    14    15   ar
    29    15    16   ar
    30    16    17   ar
    31    17    18   ar
    32    18    19   ar
#	Name:			CHEMBL3633859
#	Creating user name:	trannguyen
#	Creation time:		Tue Feb  8 17:54:08 2022


#	Modifying user name:	trannguyen
#	Modification time:	Tue Feb  8 17:54:08 2022

@<TRIPOS>MOLECULE
CHEMBL3633859
 27 30 0 0 0
SMALL
GASTEIGER

@<TRIPOS>ATOM
      1 C          -9.9850   76.0412   69.7396 C.2     1  UNL1        0.0453
      2 C          -9.0760   76.5754   68.8950 C.2     1  UNL1        0.0046
      3 C          -9.1300   77.9756   68.4723 C.2     1  UNL1        0.0144
      4 C          -9.2277   78.9806   69.4325 C.2     1  UNL1       -0.0016
      5 C          -9.3614   80.3046   69.0312 C.2     1  UNL1       -0.0047
      6 C          -9.3900   80.6077   67.6756 C.3     1  UNL1        0.1177
      7 N          -9.2508   79.6358   66.7442 N.pl3   1  UNL1       -0.2986
      8 C          -9.1460   78.3355   67.1208 C.2     1  UNL1        0.0618
      9 C          -9.4121   79.9778   65.3089 C.3     1  UNL1        0.1180
     10 C          -8.1107   80.4079   64.6555 C.ar    1  UNL1       -0.0024
     11 C          -8.1275   81.0456   63.4021 C.ar    1  UNL1       -0.0026
     12 C          -6.9354   81.3854   62.7551 C.ar    1  UNL1       -0.0003
     13 C          -5.7111   81.1009   63.3530 C.ar    1  UNL1       -0.0000
     14 C          -5.6776   80.4811   64.6004 C.ar    1  UNL1       -0.0003
     15 C          -6.8678   80.1298   65.2469 C.ar    1  UNL1       -0.0026
     16 O         -10.1596   73.7055   69.4136 O.2     1  UNL1       -0.2833
     17 C          -9.8562   74.6248   70.1911 C.2     1  UNL1        0.2299
     18 C          -9.3827   74.3695   71.5367 C.ar    1  UNL1        0.1840
     19 C         -10.0697   74.1163   72.7135 C.ar    1  UNL1        0.0439
     20 C          -9.1052   73.9593   73.7431 C.ar    1  UNL1        0.0382
     21 C          -9.1349   73.7061   75.1272 C.ar    1  UNL1        0.0098
     22 C          -7.9140   73.6139   75.8117 C.ar    1  UNL1        0.0348
     23 BR         -7.9247   73.2812   77.6762 Br      1  UNL1       -0.0490
     24 C          -6.6912   73.7633   75.1519 C.ar    1  UNL1        0.0098
     25 C          -6.6464   74.0202   73.7771 C.ar    1  UNL1        0.0380
     26 C          -7.8715   74.1117   73.1221 C.ar    1  UNL1        0.1455
     27 O          -8.0327   74.3594   71.7928 O.2     1  UNL1       -0.4503
@<TRIPOS>BOND
     1    16    17    2
     2    17     1    1
     3    17    18    1
     4     1     2    2
     5     2     3    1
     6     3     4    1
     7     3     8    2
     8     4     5    2
     9     5     6    1
    10     6     7    1
    11     7     9    1
    12     7     8    1
    13     9    10    1
    14    10    11   ar
    15    10    15   ar
    16    11    12   ar
    17    12    13   ar
    18    13    14   ar
    19    14    15   ar
    20    18    19   ar
    21    18    27   ar
    22    19    20   ar
    23    20    21   ar
    24    20    26   ar
    25    21    22   ar
    26    22    23    1
    27    22    24   ar
    28    24    25   ar
    29    25    26   ar
    30    26    27   ar
#	Name:			CHEMBL3633860
#	Creating user name:	trannguyen
#	Creation time:		Tue Feb  8 17:54:08 2022


#	Modifying user name:	trannguyen
#	Modification time:	Tue Feb  8 17:54:08 2022

@<TRIPOS>MOLECULE
CHEMBL3633860
 28 31 0 0 0
SMALL
GASTEIGER

@<TRIPOS>ATOM
      1 C          -0.6499   57.8697   76.2324 C.2     1  UNL1        0.0453
      2 C          -1.6784   58.1921   77.0281 C.2     1  UNL1        0.0046
      3 C          -3.0307   58.5196   76.5437 C.2     1  UNL1        0.0144
      4 C          -3.2979   58.8918   75.2219 C.2     1  UNL1       -0.0016
      5 C          -4.5767   59.2796   74.8452 C.2     1  UNL1       -0.0047
      6 C          -5.5919   59.2850   75.7902 C.3     1  UNL1        0.1177
      7 N          -5.3558   58.8903   77.0629 N.pl3   1  UNL1       -0.2986
      8 C          -4.1040   58.5244   77.4418 C.2     1  UNL1        0.0618
      9 C          -6.4096   59.1092   78.0923 C.3     1  UNL1        0.1185
     10 C          -7.7257   58.4387   77.7468 C.ar    1  UNL1        0.0038
     11 C          -7.7717   57.0304   77.6964 C.ar    1  UNL1       -0.0021
     12 C          -8.9545   56.3480   77.4013 C.ar    1  UNL1       -0.0002
     13 C         -10.1251   57.0566   77.1622 C.ar    1  UNL1        0.0005
     14 C         -10.1126   58.4487   77.2264 C.ar    1  UNL1        0.0064
     15 C          -8.9238   59.1371   77.5149 C.ar    1  UNL1        0.0322
     16 BR         -9.0378   61.0298   77.6242 Br      1  UNL1       -0.0493
     17 O           1.1737   56.3496   76.5531 O.2     1  UNL1       -0.2833
     18 C           0.7118   57.4900   76.7470 C.2     1  UNL1        0.2299
     19 C           1.4274   58.5374   77.4367 C.ar    1  UNL1        0.1840
     20 C           1.1972   59.8968   77.5401 C.ar    1  UNL1        0.0439
     21 C           2.1855   60.4307   78.4082 C.ar    1  UNL1        0.0382
     22 C           2.5061   61.7008   78.9188 C.ar    1  UNL1        0.0098
     23 C           3.6144   61.8135   79.7727 C.ar    1  UNL1        0.0348
     24 BR          4.0758   63.5141   80.4649 Br      1  UNL1       -0.0490
     25 C           4.3894   60.7042   80.1228 C.ar    1  UNL1        0.0098
     26 C           4.0770   59.4332   79.6329 C.ar    1  UNL1        0.0380
     27 C           2.9757   59.3523   78.7860 C.ar    1  UNL1        0.1455
     28 O           2.5205   58.2088   78.2117 O.2     1  UNL1       -0.4503
@<TRIPOS>BOND
     1    17    18    2
     2    18     1    1
     3    18    19    1
     4     1     2    2
     5     2     3    1
     6     3     4    1
     7     3     8    2
     8     4     5    2
     9     5     6    1
    10     6     7    1
    11     7     9    1
    12     7     8    1
    13     9    10    1
    14    10    11   ar
    15    10    15   ar
    16    11    12   ar
    17    12    13   ar
    18    13    14   ar
    19    14    15   ar
    20    15    16    1
    21    19    20   ar
    22    19    28   ar
    23    20    21   ar
    24    21    22   ar
    25    21    27   ar
    26    22    23   ar
    27    23    24    1
    28    23    25   ar
    29    25    26   ar
    30    26    27   ar
    31    27    28   ar
#	Name:			CHEMBL3633861
#	Creating user name:	trannguyen
#	Creation time:		Tue Feb  8 17:54:08 2022


#	Modifying user name:	trannguyen
#	Modification time:	Tue Feb  8 17:54:08 2022

@<TRIPOS>MOLECULE
CHEMBL3633861
 28 31 0 0 0
SMALL
GASTEIGER

@<TRIPOS>ATOM
      1 C          -7.7700   62.7232   76.1248 C.2     1  UNL1        0.0453
      2 C          -8.3635   63.1211   77.2611 C.2     1  UNL1        0.0046
      3 C          -8.1134   64.4441   77.8366 C.2     1  UNL1        0.0144
      4 C          -9.0288   65.4796   77.6535 C.2     1  UNL1       -0.0016
      5 C          -8.7515   66.7385   78.1747 C.2     1  UNL1       -0.0047
      6 C          -7.5735   66.9393   78.8842 C.3     1  UNL1        0.1177
      7 N          -6.7008   65.9260   79.0834 N.pl3   1  UNL1       -0.2986
      8 C          -6.9358   64.7041   78.5445 C.2     1  UNL1        0.0618
      9 C          -5.4120   66.2004   79.7685 C.3     1  UNL1        0.1180
     10 C          -4.2735   65.4240   79.1331 C.ar    1  UNL1       -0.0024
     11 C          -3.7008   64.3207   79.7919 C.ar    1  UNL1       -0.0021
     12 C          -2.6634   63.5912   79.1999 C.ar    1  UNL1        0.0064
     13 C          -2.1843   63.9562   77.9452 C.ar    1  UNL1        0.0345
     14 BR         -0.7941   62.9594   77.1402 Br      1  UNL1       -0.0490
     15 C          -2.7346   65.0449   77.2747 C.ar    1  UNL1        0.0064
     16 C          -3.7746   65.7754   77.8636 C.ar    1  UNL1       -0.0021
     17 O          -9.0589   61.2252   74.8372 O.2     1  UNL1       -0.2833
     18 C          -8.0617   61.3706   75.5394 C.2     1  UNL1        0.2299
     19 C          -7.1127   60.3127   75.8436 C.ar    1  UNL1        0.1840
     20 C          -7.1374   59.2605   76.7443 C.ar    1  UNL1        0.0439
     21 C          -5.9176   58.5523   76.6032 C.ar    1  UNL1        0.0382
     22 C          -5.3463   57.4167   77.2041 C.ar    1  UNL1        0.0098
     23 C          -4.0785   57.0086   76.7707 C.ar    1  UNL1        0.0348
     24 BR         -3.2908   55.4727   77.5499 Br      1  UNL1       -0.0490
     25 C          -3.3868   57.7040   75.7751 C.ar    1  UNL1        0.0098
     26 C          -3.9419   58.8410   75.1740 C.ar    1  UNL1        0.0380
     27 C          -5.2059   59.2227   75.6176 C.ar    1  UNL1        0.1455
     28 O          -5.9208   60.2888   75.1618 O.2     1  UNL1       -0.4503
@<TRIPOS>BOND
     1    17    18    2
     2    18     1    1
     3    18    19    1
     4     1     2    2
     5     2     3    1
     6     3     4    1
     7     3     8    2
     8     4     5    2
     9     5     6    1
    10     6     7    1
    11     7     9    1
    12     7     8    1
    13     9    10    1
    14    10    11   ar
    15    10    16   ar
    16    11    12   ar
    17    12    13   ar
    18    13    14    1
    19    13    15   ar
    20    15    16   ar
    21    19    20   ar
    22    19    28   ar
    23    20    21   ar
    24    21    22   ar
    25    21    27   ar
    26    22    23   ar
    27    23    24    1
    28    23    25   ar
    29    25    26   ar
    30    26    27   ar
    31    27    28   ar
#	Name:			CHEMBL3633862
#	Creating user name:	trannguyen
#	Creation time:		Tue Feb  8 17:54:08 2022


#	Modifying user name:	trannguyen
#	Modification time:	Tue Feb  8 17:54:08 2022

@<TRIPOS>MOLECULE
CHEMBL3633862
 29 32 0 0 0
SMALL
GASTEIGER

@<TRIPOS>ATOM
      1 C          -6.8556   58.2853   76.7500 C.2     1  UNL1        0.0144
      2 C          -7.9908   57.5410   77.0634 C.2     1  UNL1       -0.0016
      3 C          -7.8545   56.3379   77.7448 C.2     1  UNL1       -0.0047
      4 C          -6.5888   55.9042   78.1134 C.3     1  UNL1        0.1177
      5 N          -5.4810   56.6023   77.7730 N.pl3   1  UNL1       -0.2986
      6 C          -5.6008   57.7835   77.1132 C.2     1  UNL1        0.0618
      7 C          -7.6986   60.5804   76.7174 C.2     1  UNL1        0.0453
      8 C          -6.9831   59.6133   76.1369 C.2     1  UNL1        0.0046
      9 O          -8.0906   62.0602   74.9043 O.2     1  UNL1       -0.2833
     10 C          -7.8132   61.9517   76.0929 C.2     1  UNL1        0.2299
     11 C          -7.5485   63.0822   76.9685 C.ar    1  UNL1        0.1840
     12 C          -8.4077   63.9678   77.6126 C.ar    1  UNL1        0.0439
     13 C          -7.5937   64.9098   78.3057 C.ar    1  UNL1        0.0382
     14 C          -7.8135   66.0328   79.1266 C.ar    1  UNL1        0.0098
     15 C          -6.6952   66.7269   79.6160 C.ar    1  UNL1        0.0348
     16 BR         -6.9588   68.2449   80.7178 Br      1  UNL1       -0.0490
     17 C          -5.3915   66.3278   79.3091 C.ar    1  UNL1        0.0098
     18 C          -5.1583   65.2102   78.5026 C.ar    1  UNL1        0.0380
     19 C          -6.2843   64.5412   78.0297 C.ar    1  UNL1        0.1455
     20 O          -6.2608   63.4461   77.2325 O.2     1  UNL1       -0.4503
     21 C          -4.1595   56.2065   78.3239 C.3     1  UNL1        0.1189
     22 C          -3.2011   55.6619   77.2751 C.ar    1  UNL1        0.0090
     23 C          -2.2923   56.5447   76.6529 C.ar    1  UNL1       -0.0017
     24 C          -1.4498   56.1140   75.6263 C.ar    1  UNL1        0.0007
     25 C          -1.5128   54.7973   75.1826 C.ar    1  UNL1        0.0122
     26 C          -2.3834   53.8953   75.7987 C.ar    1  UNL1        0.0679
     27 CL         -2.3898   52.2737   75.1959 Cl      1  UNL1       -0.0814
     28 C          -3.2119   54.3151   76.8580 C.ar    1  UNL1        0.0658
     29 CL         -4.2413   53.1771   77.6661 Cl      1  UNL1       -0.0816
@<TRIPOS>BOND
     1     9    10    2
     2    10     7    1
     3    10    11    1
     4     7     8    2
     5     8     1    1
     6     1     2    1
     7     1     6    2
     8     2     3    2
     9     3     4    1
    10     4     5    1
    11     5    21    1
    12     5     6    1
    13    21    22    1
    14    22    23   ar
    15    22    28   ar
    16    23    24   ar
    17    24    25   ar
    18    25    26   ar
    19    26    27    1
    20    26    28   ar
    21    28    29    1
    22    11    12   ar
    23    11    20   ar
    24    12    13   ar
    25    13    14   ar
    26    13    19   ar
    27    14    15   ar
    28    15    16    1
    29    15    17   ar
    30    17    18   ar
    31    18    19   ar
    32    19    20   ar
#	Name:			CHEMBL3633864
#	Creating user name:	trannguyen
#	Creation time:		Tue Feb  8 17:54:08 2022


#	Modifying user name:	trannguyen
#	Modification time:	Tue Feb  8 17:54:08 2022

@<TRIPOS>MOLECULE
CHEMBL3633864
 28 31 0 0 0
SMALL
GASTEIGER

@<TRIPOS>ATOM
      1 C          -3.4122   57.7491   75.6672 C.2     1  UNL1        0.0453
      2 C          -2.0885   57.8753   75.8447 C.2     1  UNL1        0.0046
      3 C          -1.2363   56.7663   76.2858 C.2     1  UNL1        0.0144
      4 C          -0.0490   57.0096   76.9738 C.2     1  UNL1       -0.0016
      5 C           0.7412   55.9365   77.3778 C.2     1  UNL1       -0.0047
      6 C           0.3357   54.6362   77.0880 C.3     1  UNL1        0.1177
      7 N          -0.8115   54.4130   76.4051 N.pl3   1  UNL1       -0.2986
      8 C          -1.5951   55.4446   76.0148 C.2     1  UNL1        0.0618
      9 C          -1.2578   53.0202   76.1592 C.3     1  UNL1        0.1180
     10 C          -2.4561   52.6485   76.9885 C.ar    1  UNL1       -0.0024
     11 C          -3.6568   52.2647   76.3808 C.ar    1  UNL1       -0.0026
     12 C          -4.7634   51.9371   77.1636 C.ar    1  UNL1       -0.0003
     13 C          -4.6837   52.0012   78.5545 C.ar    1  UNL1       -0.0000
     14 C          -3.5024   52.4082   79.1691 C.ar    1  UNL1       -0.0003
     15 C          -2.3922   52.7299   78.3909 C.ar    1  UNL1       -0.0026
     16 C          -4.2272   58.9575   75.2828 C.2     1  UNL1        0.2299
     17 O          -3.7310   59.8184   74.5900 O.2     1  UNL1       -0.2833
     18 C          -8.3810   57.3088   77.1681 C.ar    1  UNL1        0.1730
     19 C          -9.5938   57.8630   77.5940 C.ar    1  UNL1        0.0401
     20 C          -9.8135   59.2434   77.5543 C.ar    1  UNL1        0.0033
     21 C          -8.8355   60.1176   77.0543 C.ar    1  UNL1        0.0033
     22 C          -7.6191   59.5817   76.5921 C.ar    1  UNL1        0.0407
     23 C          -6.4243   60.1071   76.0144 C.ar    1  UNL1        0.0440
     24 C          -5.5784   59.0324   75.8102 C.ar    1  UNL1        0.1842
     25 O          -6.1913   57.8907   76.2006 O.2     1  UNL1       -0.4472
     26 C          -7.4274   58.2068   76.6716 C.ar    1  UNL1        0.1791
     27 C          -7.5974   55.4400   78.3821 C.3     1  UNL1        0.2526
     28 O          -8.2715   55.9318   77.2274 O.3     1  UNL1       -0.4684
@<TRIPOS>BOND
     1    27    28    1
     2    28    18    1
     3    18    19   ar
     4    18    26   ar
     5    19    20   ar
     6    20    21   ar
     7    21    22   ar
     8    22    23   ar
     9    22    26   ar
    10    23    24   ar
    11    24    16    1
    12    24    25   ar
    13    16    17    2
    14    16     1    1
    15     1     2    2
    16     2     3    1
    17     3     4    1
    18     3     8    2
    19     4     5    2
    20     5     6    1
    21     6     7    1
    22     7     9    1
    23     7     8    1
    24     9    10    1
    25    10    11   ar
    26    10    15   ar
    27    11    12   ar
    28    12    13   ar
    29    13    14   ar
    30    14    15   ar
    31    25    26   ar
#	Name:			CHEMBL3633866
#	Creating user name:	trannguyen
#	Creation time:		Tue Feb  8 17:54:08 2022


#	Modifying user name:	trannguyen
#	Modification time:	Tue Feb  8 17:54:08 2022

@<TRIPOS>MOLECULE
CHEMBL3633866
 29 32 0 0 0
SMALL
GASTEIGER

@<TRIPOS>ATOM
      1 C          -2.9418   57.7394   75.8101 C.2     1  UNL1        0.0453
      2 C          -3.0724   56.4944   75.3270 C.2     1  UNL1        0.0046
      3 C          -2.3025   55.3204   75.7942 C.2     1  UNL1        0.0144
      4 C          -2.8230   54.0423   75.5836 C.2     1  UNL1       -0.0016
      5 C          -2.1330   52.9230   76.0405 C.2     1  UNL1       -0.0047
      6 C          -0.9285   53.0877   76.7097 C.3     1  UNL1        0.1177
      7 N          -0.4174   54.3210   76.9085 N.pl3   1  UNL1       -0.2986
      8 C          -1.0750   55.4155   76.4602 C.2     1  UNL1        0.0618
      9 C           0.8938   54.4665   77.6008 C.3     1  UNL1        0.1180
     10 C           1.0614   55.8398   78.2071 C.ar    1  UNL1       -0.0024
     11 C           0.8121   56.0292   79.5744 C.ar    1  UNL1       -0.0021
     12 C           0.9083   57.2921   80.1620 C.ar    1  UNL1        0.0064
     13 C           1.2858   58.3817   79.3886 C.ar    1  UNL1        0.0345
     14 BR          1.4002   60.0975   80.1690 Br      1  UNL1       -0.0490
     15 C           1.5853   58.2118   78.0392 C.ar    1  UNL1        0.0064
     16 C           1.4814   56.9461   77.4522 C.ar    1  UNL1       -0.0021
     17 C          -3.7848   58.8939   75.3353 C.2     1  UNL1        0.2299
     18 O          -3.3174   59.7237   74.5735 O.2     1  UNL1       -0.2833
     19 C          -8.2881   60.6249   75.8941 C.ar    1  UNL1        0.1730
     20 C          -9.4437   60.2399   76.5838 C.ar    1  UNL1        0.0401
     21 C          -9.4738   59.0780   77.3603 C.ar    1  UNL1        0.0033
     22 C          -8.3469   58.2490   77.4674 C.ar    1  UNL1        0.0033
     23 C          -7.1717   58.6119   76.7856 C.ar    1  UNL1        0.0407
     24 C          -5.8671   58.0542   76.6356 C.ar    1  UNL1        0.0440
     25 C          -5.1521   58.9206   75.8302 C.ar    1  UNL1        0.1842
     26 O          -5.9514   59.9660   75.4771 O.2     1  UNL1       -0.4472
     27 C          -7.1764   59.7833   76.0363 C.ar    1  UNL1        0.1791
     28 C          -7.7085   62.9183   75.6730 C.3     1  UNL1        0.2526
     29 O          -8.3873   61.7863   75.1470 O.3     1  UNL1       -0.4684
@<TRIPOS>BOND
     1    28    29    1
     2    29    19    1
     3    19    20   ar
     4    19    27   ar
     5    20    21   ar
     6    21    22   ar
     7    22    23   ar
     8    23    24   ar
     9    23    27   ar
    10    24    25   ar
    11    25    17    1
    12    25    26   ar
    13    17    18    2
    14    17     1    1
    15     1     2    2
    16     2     3    1
    17     3     4    1
    18     3     8    2
    19     4     5    2
    20     5     6    1
    21     6     7    1
    22     7     9    1
    23     7     8    1
    24     9    10    1
    25    10    11   ar
    26    10    16   ar
    27    11    12   ar
    28    12    13   ar
    29    13    14    1
    30    13    15   ar
    31    15    16   ar
    32    26    27   ar
#	Name:			CHEMBL3633867
#	Creating user name:	trannguyen
#	Creation time:		Tue Feb  8 17:54:08 2022


#	Modifying user name:	trannguyen
#	Modification time:	Tue Feb  8 17:54:08 2022

@<TRIPOS>MOLECULE
CHEMBL3633867
 29 32 0 0 0
SMALL
GASTEIGER

@<TRIPOS>ATOM
      1 C          -3.8986   58.7248   75.5224 C.2     1  UNL1        0.0453
      2 C          -3.0079   59.2180   76.3917 C.2     1  UNL1        0.0046
      3 C          -1.6887   58.6360   76.7066 C.2     1  UNL1        0.0144
      4 C          -0.6958   59.4759   77.2156 C.2     1  UNL1       -0.0016
      5 C           0.5397   58.9562   77.5867 C.2     1  UNL1       -0.0047
      6 C           0.7841   57.6021   77.4128 C.3     1  UNL1        0.1177
      7 N          -0.1327   56.8124   76.8140 N.pl3   1  UNL1       -0.2986
      8 C          -1.3614   57.2929   76.5011 C.2     1  UNL1        0.0618
      9 C           0.1844   55.3797   76.5747 C.3     1  UNL1        0.1180
     10 C          -1.0529   54.5013   76.7053 C.ar    1  UNL1       -0.0024
     11 C          -1.5482   54.0790   77.9516 C.ar    1  UNL1       -0.0017
     12 C          -2.6850   53.2661   78.0295 C.ar    1  UNL1        0.0111
     13 C          -3.3230   52.8470   76.8647 C.ar    1  UNL1        0.0577
     14 CL         -4.7212   51.8505   76.9635 Cl      1  UNL1       -0.0822
     15 C          -2.8307   53.2298   75.6207 C.ar    1  UNL1        0.0111
     16 C          -1.6985   54.0475   75.5412 C.ar    1  UNL1       -0.0017
     17 C          -5.1581   59.4855   75.2235 C.2     1  UNL1        0.2299
     18 O          -5.2356   60.1676   74.2194 O.2     1  UNL1       -0.2833
     19 C          -8.4768   57.0185   77.7665 C.ar    1  UNL1        0.1730
     20 C          -9.4731   57.3460   78.6967 C.ar    1  UNL1        0.0401
     21 C          -9.7079   58.6679   79.0843 C.ar    1  UNL1        0.0033
     22 C          -8.9386   59.7165   78.5648 C.ar    1  UNL1        0.0033
     23 C          -7.9246   59.4167   77.6381 C.ar    1  UNL1        0.0407
     24 C          -6.9467   60.1748   76.9363 C.ar    1  UNL1        0.0440
     25 C          -6.2579   59.2862   76.1392 C.ar    1  UNL1        0.1842
     26 O          -6.7432   58.0289   76.3205 O.2     1  UNL1       -0.4472
     27 C          -7.7358   58.0911   77.2519 C.ar    1  UNL1        0.1791
     28 C          -8.2141   54.7983   78.5970 C.3     1  UNL1        0.2526
     29 O          -8.3512   55.6708   77.4781 O.3     1  UNL1       -0.4684
@<TRIPOS>BOND
     1    28    29    1
     2    29    19    1
     3    19    20   ar
     4    19    27   ar
     5    20    21   ar
     6    21    22   ar
     7    22    23   ar
     8    23    24   ar
     9    23    27   ar
    10    24    25   ar
    11    25    17    1
    12    25    26   ar
    13    17    18    2
    14    17     1    1
    15     1     2    2
    16     2     3    1
    17     3     4    1
    18     3     8    2
    19     4     5    2
    20     5     6    1
    21     6     7    1
    22     7     9    1
    23     7     8    1
    24     9    10    1
    25    10    11   ar
    26    10    16   ar
    27    11    12   ar
    28    12    13   ar
    29    13    14    1
    30    13    15   ar
    31    15    16   ar
    32    26    27   ar
#	Name:			CHEMBL3633871
#	Creating user name:	trannguyen
#	Creation time:		Tue Feb  8 17:54:08 2022


#	Modifying user name:	trannguyen
#	Modification time:	Tue Feb  8 17:54:08 2022

@<TRIPOS>MOLECULE
CHEMBL3633871
 28 31 0 0 0
SMALL
GASTEIGER

@<TRIPOS>ATOM
      1 C          -5.4201   58.8642   76.3028 C.2     1  UNL1       -0.0012
      2 C          -4.0476   58.8700   76.0732 C.2     1  UNL1       -0.0047
      3 C          -3.2548   57.8498   76.5838 C.3     1  UNL1        0.1177
      4 N          -3.7939   56.8308   77.2931 N.pl3   1  UNL1       -0.2986
      5 C          -5.1252   56.8104   77.5391 C.2     1  UNL1        0.0618
      6 C          -5.9541   57.8221   77.0602 C.2     1  UNL1        0.0155
      7 C          -6.9925   60.7685   76.6037 C.2     1  UNL1        0.0452
      8 C          -6.2287   59.9902   75.8194 C.2     1  UNL1        0.0032
      9 O          -8.2258   61.8224   74.8934 O.2     1  UNL1       -0.2833
     10 C          -7.7583   61.9247   76.0312 C.2     1  UNL1        0.2299
     11 C          -7.8840   63.1061   76.8581 C.ar    1  UNL1        0.1840
     12 C          -7.2696   63.4583   78.0461 C.ar    1  UNL1        0.0438
     13 C          -7.7416   64.7521   78.3911 C.ar    1  UNL1        0.0377
     14 C          -7.4947   65.6663   79.4291 C.ar    1  UNL1        0.0031
     15 C          -8.1721   66.8947   79.4184 C.ar    1  UNL1        0.0002
     16 C          -9.0777   67.2113   78.4015 C.ar    1  UNL1        0.0031
     17 C          -9.3342   66.3147   77.3587 C.ar    1  UNL1        0.0375
     18 C          -8.6423   65.1054   77.3963 C.ar    1  UNL1        0.1454
     19 O          -8.7386   64.1109   76.4712 O.2     1  UNL1       -0.4503
     20 C          -2.9102   55.7790   77.8688 C.3     1  UNL1        0.1189
     21 C          -3.1783   54.4117   77.2800 C.ar    1  UNL1        0.0090
     22 C          -4.1548   53.5931   77.8822 C.ar    1  UNL1       -0.0017
     23 C          -4.4457   52.3258   77.3724 C.ar    1  UNL1        0.0007
     24 C          -3.7640   51.8468   76.2575 C.ar    1  UNL1        0.0122
     25 C          -2.7785   52.6270   75.6539 C.ar    1  UNL1        0.0679
     26 CL         -1.9546   51.9500   74.2929 Cl      1  UNL1       -0.0814
     27 C          -2.4816   53.9059   76.1589 C.ar    1  UNL1        0.0658
     28 CL         -1.2287   54.8475   75.4157 Cl      1  UNL1       -0.0816
@<TRIPOS>BOND
     1     9    10    2
     2    10     7    1
     3    10    11    1
     4     7     8    2
     5     8     1    1
     6     1     2    2
     7     1     6    1
     8     2     3    1
     9     3     4    1
    10     4    20    1
    11     4     5    1
    12    20    21    1
    13    21    22   ar
    14    21    27   ar
    15    22    23   ar
    16    23    24   ar
    17    24    25   ar
    18    25    26    1
    19    25    27   ar
    20    27    28    1
    21     5     6    2
    22    11    12   ar
    23    11    19   ar
    24    12    13   ar
    25    13    14   ar
    26    13    18   ar
    27    14    15   ar
    28    15    16   ar
    29    16    17   ar
    30    17    18   ar
    31    18    19   ar
#	Name:			CHEMBL3633872
#	Creating user name:	trannguyen
#	Creation time:		Tue Feb  8 17:54:08 2022


#	Modifying user name:	trannguyen
#	Modification time:	Tue Feb  8 17:54:08 2022

@<TRIPOS>MOLECULE
CHEMBL3633872
 27 30 0 0 0
SMALL
GASTEIGER

@<TRIPOS>ATOM
      1 C           0.9782   58.5011   76.2427 C.2     1  UNL1        0.0452
      2 C           1.0311   57.5955   77.2320 C.2     1  UNL1        0.0032
      3 C           0.5165   56.2430   77.0397 C.2     1  UNL1       -0.0012
      4 C          -0.6125   56.0271   76.2583 C.2     1  UNL1       -0.0047
      5 C          -1.1353   54.7452   76.1599 C.3     1  UNL1        0.1177
      6 N          -0.5414   53.6956   76.7725 N.pl3   1  UNL1       -0.2986
      7 C           0.5458   53.8947   77.5538 C.2     1  UNL1        0.0618
      8 C           1.0977   55.1642   77.6983 C.2     1  UNL1        0.0155
      9 C          -1.1846   52.3592   76.7338 C.3     1  UNL1        0.1180
     10 C          -2.5559   52.3701   77.3807 C.ar    1  UNL1       -0.0024
     11 C          -2.7050   52.7207   78.7343 C.ar    1  UNL1       -0.0026
     12 C          -3.9605   52.7013   79.3443 C.ar    1  UNL1       -0.0003
     13 C          -5.0812   52.3111   78.6175 C.ar    1  UNL1       -0.0000
     14 C          -4.9523   51.9701   77.2725 C.ar    1  UNL1       -0.0003
     15 C          -3.7003   52.0129   76.6512 C.ar    1  UNL1       -0.0026
     16 O           2.7353   60.0895   76.2388 O.2     1  UNL1       -0.2833
     17 C           1.5327   59.8748   76.4317 C.2     1  UNL1        0.2299
     18 C           0.5992   60.9128   76.8019 C.ar    1  UNL1        0.1840
     19 C          -0.2552   61.0342   77.8835 C.ar    1  UNL1        0.0439
     20 C          -0.9671   62.2522   77.7148 C.ar    1  UNL1        0.0382
     21 C          -1.9531   62.9531   78.4327 C.ar    1  UNL1        0.0098
     22 C          -2.4388   64.1534   77.8931 C.ar    1  UNL1        0.0348
     23 BR         -3.7722   65.1139   78.8340 Br      1  UNL1       -0.0490
     24 C          -1.9664   64.6552   76.6775 C.ar    1  UNL1        0.0098
     25 C          -0.9759   63.9769   75.9600 C.ar    1  UNL1        0.0380
     26 C          -0.5088   62.7906   76.5189 C.ar    1  UNL1        0.1455
     27 O           0.4481   61.9946   75.9767 O.2     1  UNL1       -0.4503
@<TRIPOS>BOND
     1    16    17    2
     2    17     1    1
     3    17    18    1
     4     1     2    2
     5     2     3    1
     6     3     4    2
     7     3     8    1
     8     4     5    1
     9     5     6    1
    10     6     9    1
    11     6     7    1
    12     9    10    1
    13    10    11   ar
    14    10    15   ar
    15    11    12   ar
    16    12    13   ar
    17    13    14   ar
    18    14    15   ar
    19     7     8    2
    20    18    19   ar
    21    18    27   ar
    22    19    20   ar
    23    20    21   ar
    24    20    26   ar
    25    21    22   ar
    26    22    23    1
    27    22    24   ar
    28    24    25   ar
    29    25    26   ar
    30    26    27   ar
#	Name:			CHEMBL376514
#	Creating user name:	trannguyen
#	Creation time:		Tue Feb  8 17:54:08 2022


#	Modifying user name:	trannguyen
#	Modification time:	Tue Feb  8 17:54:08 2022

@<TRIPOS>MOLECULE
CHEMBL376514
 23 25 0 0 0
SMALL
GASTEIGER

@<TRIPOS>ATOM
      1 C          -7.9130   75.1717   73.4354 C.2     1  UNL1        0.2476
      2 O          -7.3240   75.8212   72.5401 O.2     1  UNL1       -0.2727
      3 N          -8.1164   75.6539   74.7555 N.am    1  UNL1       -0.2353
      4 C          -8.2709   74.8461   75.9136 C.ar    1  UNL1        0.0641
      5 C          -7.4077   73.7649   76.1361 C.ar    1  UNL1        0.0157
      6 C          -7.4505   73.0557   77.3411 C.ar    1  UNL1        0.0013
      7 C          -8.3623   73.4156   78.3310 C.ar    1  UNL1        0.0006
      8 C          -9.2227   74.4944   78.1270 C.ar    1  UNL1        0.0077
      9 C          -9.1687   75.2209   76.9312 C.ar    1  UNL1        0.0435
     10 S         -10.2175   76.6528   76.7184 S.3     1  UNL1       -0.0844
     11 C          -9.0203   77.6617   75.8551 C.ar    1  UNL1        0.0435
     12 C          -9.0554   79.0525   76.0181 C.ar    1  UNL1        0.0077
     13 C          -8.0577   79.8458   75.4529 C.ar    1  UNL1        0.0006
     14 C          -7.0042   79.2482   74.7658 C.ar    1  UNL1        0.0013
     15 C          -6.9980   77.8662   74.5507 C.ar    1  UNL1        0.0157
     16 C          -8.0373   77.0655   75.0469 C.ar    1  UNL1        0.0641
     17 C          -8.6162   73.8153   73.0781 C.3     1  UNL1        0.1357
     18 C          -7.5403   72.9210   72.4375 C.3     1  UNL1        0.0272
     19 N          -9.7896   73.9533   72.1245 N.3     1  UNL1       -0.2665
     20 C         -10.5521   76.1057   70.9616 C.3     1  UNL1        0.0188
     21 C         -10.4649   75.2668   72.2394 C.3     1  UNL1        0.0725
     22 C          -9.4574   73.6178   70.7263 C.3     1  UNL1        0.0725
     23 C         -10.2867   72.4736   70.1206 C.3     1  UNL1        0.0188
@<TRIPOS>BOND
     1    20    21    1
     2    21    19    1
     3    19    22    1
     4    19    17    1
     5    22    23    1
     6    17    18    1
     7    17     1    1
     8     1     2    2
     9     1     3   am
    10     3     4    1
    11     3    16    1
    12     4     5   ar
    13     4     9   ar
    14     5     6   ar
    15     6     7   ar
    16     7     8   ar
    17     8     9   ar
    18     9    10    1
    19    10    11    1
    20    11    12   ar
    21    11    16   ar
    22    12    13   ar
    23    13    14   ar
    24    14    15   ar
    25    15    16   ar
#	Name:			CHEMBL391918
#	Creating user name:	trannguyen
#	Creation time:		Tue Feb  8 17:54:08 2022


#	Modifying user name:	trannguyen
#	Modification time:	Tue Feb  8 17:54:08 2022

@<TRIPOS>MOLECULE
CHEMBL391918
 34 38 0 0 0
SMALL
GASTEIGER

@<TRIPOS>ATOM
      1 C           3.3330   62.2740   79.4091 C.3     1  UNL1        0.0941
      2 C           2.2731   61.3753   78.8585 C.2     1  UNL1        0.1961
      3 N           2.2847   60.1120   79.0785 N.2     1  UNL1       -0.2432
      4 C           1.2340   59.2839   78.4836 C.3     1  UNL1        0.1140
      5 C           1.7878   57.8711   78.2849 C.3     1  UNL1        0.0499
      6 C           0.8481   57.0153   77.4971 C.2     1  UNL1       -0.0326
      7 C          -0.1971   57.4864   76.7889 C.2     1  UNL1       -0.0481
      8 C          -1.1519   56.4994   76.1639 C.3     1  UNL1        0.0290
      9 C          -2.3528   56.3424   77.1003 C.3     1  UNL1        0.0616
     10 C          -2.9212   54.9535   77.0288 C.2     1  UNL1        0.1506
     11 O          -2.7237   54.1755   76.1044 O.2     1  UNL1       -0.2961
     12 C          -3.7591   54.5833   78.2122 C.3     1  UNL1        0.0646
     13 C          -4.8504   55.6281   78.5744 C.3     1  UNL1        0.0105
     14 C          -4.8296   55.7487   80.1249 C.3     1  UNL1        0.0006
     15 C          -6.2641   55.0991   78.0811 C.3     1  UNL1        0.0420
     16 C          -7.0507   56.4067   77.8813 C.3     1  UNL1        0.1118
     17 O          -8.2214   56.2471   77.1028 O.3     1  UNL1       -0.3844
     18 C          -6.0630   57.2803   77.1283 C.3     1  UNL1        0.0293
     19 C          -4.7005   57.1057   77.8632 C.3     1  UNL1        0.0033
     20 C          -4.6255   58.2533   78.9071 C.3     1  UNL1        0.0001
     21 C          -3.5360   57.2528   76.7833 C.3     1  UNL1        0.0073
     22 C          -3.0997   58.6986   76.4239 C.3     1  UNL1        0.0008
     23 C          -1.9181   59.3080   77.2179 C.3     1  UNL1        0.0042
     24 C          -0.5137   58.9756   76.6354 C.3     1  UNL1        0.0233
     25 C           0.6780   59.8719   77.1739 C.3     1  UNL1        0.0649
     26 C           1.7660   59.9304   76.0603 C.3     1  UNL1        0.0060
     27 C           0.2827   61.3058   77.5400 C.3     1  UNL1        0.2087
     28 O           1.3894   62.0458   78.0833 O.2     1  UNL1       -0.4635
     29 H          -8.7210   55.5237   77.5389 H       1  UNL1        0.2103
     30 C          -7.0435   54.0524   78.9673 C.3     1  UNL1        0.0599
     31 C          -7.0773   52.6356   78.3642 C.3     1  UNL1        0.0174
     32 N          -8.4071   54.5409   79.3282 N.3     1  UNL1       -0.2715
     33 C          -9.4976   53.6332   78.9420 C.3     1  UNL1        0.0896
     34 C          -8.5244   54.8514   80.7597 C.3     1  UNL1        0.0896
@<TRIPOS>BOND
     1     1     2    1
     2     2     3    2
     3     2    28    1
     4     3     4    1
     5     4     5    1
     6     4    25    1
     7     5     6    1
     8     6     7    2
     9     7     8    1
    10     7    24    1
    11     8     9    1
    12     9    10    1
    13     9    21    1
    14    10    11    2
    15    10    12    1
    16    12    13    1
    17    13    14    1
    18    13    15    1
    19    13    19    1
    20    15    16    1
    21    30    31    1
    22    30    32    1
    23    30    15    1
    24    32    33    1
    25    32    34    1
    26    16    17    1
    27    16    18    1
    28    17    29    1
    29    18    19    1
    30    19    20    1
    31    19    21    1
    32    21    22    1
    33    22    23    1
    34    23    24    1
    35    24    25    1
    36    25    26    1
    37    25    27    1
    38    27    28    1
#	Name:			CHEMBL396941
#	Creating user name:	trannguyen
#	Creation time:		Tue Feb  8 17:54:08 2022


#	Modifying user name:	trannguyen
#	Modification time:	Tue Feb  8 17:54:08 2022

@<TRIPOS>MOLECULE
CHEMBL396941
 26 27 0 0 0
SMALL
GASTEIGER

@<TRIPOS>ATOM
      1 N          -1.3208   55.2152   76.8524 N.am    1  UNL1       -0.2935
      2 C           0.0393   55.3946   76.9337 C.2     1  UNL1        0.2674
      3 O           0.7914   55.2248   75.9750 O.2     1  UNL1       -0.2711
      4 H          -1.8634   55.2135   77.7107 H       1  UNL1        0.1500
      5 C          -1.9453   54.8448   75.5815 C.3     1  UNL1        0.1759
      6 C          -2.0722   53.3049   75.4772 C.2     1  UNL1        0.3355
      7 O          -1.1869   52.5454   75.0656 O.2     1  UNL1       -0.2483
      8 C          -3.3234   52.0070   77.0337 C.3     1  UNL1        0.2557
      9 O          -3.3078   52.9380   75.9538 O.3     1  UNL1       -0.4433
     10 C          -3.3391   55.4695   75.4675 C.3     1  UNL1        0.0574
     11 C          -3.4877   56.8478   76.0734 C.ar    1  UNL1       -0.0200
     12 C          -2.8755   57.9609   75.4786 C.ar    1  UNL1       -0.0042
     13 C          -3.0791   59.2443   75.9940 C.ar    1  UNL1       -0.0003
     14 C          -3.8879   59.4287   77.1131 C.ar    1  UNL1       -0.0000
     15 C          -4.4900   58.3298   77.7205 C.ar    1  UNL1       -0.0003
     16 C          -4.2975   57.0484   77.2002 C.ar    1  UNL1       -0.0042
     17 C           0.5707   55.7306   78.3190 C.3     1  UNL1        0.2893
     18 O           1.5370   56.7808   78.3167 O.3     1  UNL1       -0.4656
     19 C           1.0112   58.0224   78.0564 C.ar    1  UNL1        0.1393
     20 C           0.0350   58.6367   78.8464 C.ar    1  UNL1        0.0370
     21 C          -0.4751   59.8852   78.4986 C.ar    1  UNL1        0.0064
     22 C           0.0009   60.5350   77.3624 C.ar    1  UNL1        0.0424
     23 C           0.9798   59.9396   76.5636 C.ar    1  UNL1        0.0064
     24 C           1.4701   58.6717   76.9043 C.ar    1  UNL1        0.0370
     25 C          -0.5407   61.8602   77.0175 C.2     1  UNL1        0.2342
     26 O          -0.4054   62.3349   75.8961 O.2     1  UNL1       -0.2831
@<TRIPOS>BOND
     1     8     9    1
     2     9     6    1
     3     6     7    2
     4     6     5    1
     5     5    10    1
     6     5     1    1
     7    10    11    1
     8    11    12   ar
     9    11    16   ar
    10    12    13   ar
    11    13    14   ar
    12    14    15   ar
    13    15    16   ar
    14     1     2   am
    15     1     4    1
    16     2     3    2
    17     2    17    1
    18    17    18    1
    19    18    19    1
    20    19    20   ar
    21    19    24   ar
    22    20    21   ar
    23    21    22   ar
    24    22    25    1
    25    22    23   ar
    26    25    26    2
    27    23    24   ar
#	Name:			CHEMBL4061201
#	Creating user name:	trannguyen
#	Creation time:		Tue Feb  8 17:54:08 2022


#	Modifying user name:	trannguyen
#	Modification time:	Tue Feb  8 17:54:08 2022

@<TRIPOS>MOLECULE
CHEMBL4061201
 36 39 0 0 0
SMALL
GASTEIGER

@<TRIPOS>ATOM
      1 C          -6.0060   60.2834   80.2386 C.3     1  UNL1        0.0915
      2 C          -4.4866   61.7040   78.8424 C.2     1  UNL1        0.2486
      3 O          -5.4284   62.1356   78.1555 O.2     1  UNL1       -0.2700
      4 N          -4.7008   60.7896   79.8404 N.am    1  UNL1       -0.3007
      5 H          -3.8873   60.4647   80.3675 H       1  UNL1        0.1497
      6 C          -3.0436   62.1674   78.6138 C.2     1  UNL1        0.0880
      7 C          -2.1578   61.1367   78.5130 C.2     1  UNL1        0.0074
      8 C          -0.7110   61.0263   78.2352 C.ar    1  UNL1        0.0004
      9 C          -0.2141   61.2805   76.9482 C.ar    1  UNL1        0.0031
     10 C           1.1508   61.1333   76.6558 C.ar    1  UNL1        0.0366
     11 C           2.0114   60.6369   77.6262 C.ar    1  UNL1        0.1337
     12 O           3.3421   60.4707   77.3800 O.3     1  UNL1       -0.5055
     13 C           1.5201   60.2644   78.8710 C.ar    1  UNL1        0.0366
     14 C           0.1651   60.4692   79.1795 C.ar    1  UNL1        0.0031
     15 H           3.5455   60.8150   76.4939 H       1  UNL1        0.2922
     16 C          -2.8000   64.5774   79.6750 C.3     1  UNL1        0.0774
     17 C          -2.7771   63.6482   78.4937 C.2     1  UNL1        0.1779
     18 O          -2.5657   64.1397   77.3796 O.2     1  UNL1       -0.2912
     19 C          -5.9997   58.7645   80.3946 C.3     1  UNL1        0.0424
     20 C          -4.5741   58.1911   80.4490 C.3     1  UNL1        0.0888
     21 N          -4.3491   57.3798   79.2513 N.pl3   1  UNL1       -0.3328
     22 H          -5.2518   57.0683   78.9057 H       1  UNL1        0.1468
     23 C          -3.5284   57.7238   78.1506 C.ar    1  UNL1        0.0431
     24 C          -2.1748   57.3352   77.9967 C.ar    1  UNL1        0.0045
     25 C          -1.4885   57.7753   76.8511 C.ar    1  UNL1        0.0561
     26 N          -2.0719   58.4584   75.8436 N.ar    1  UNL1       -0.2499
     27 C          -3.3741   58.7225   75.9156 C.ar    1  UNL1        0.0820
     28 C          -3.9436   59.3470   74.8126 C.ar    1  UNL1        0.0191
     29 C          -5.2990   59.6623   74.7571 C.ar    1  UNL1        0.0015
     30 C          -6.1078   59.3476   75.8339 C.ar    1  UNL1        0.0001
     31 C          -5.5524   58.7163   76.9504 C.ar    1  UNL1        0.0027
     32 C          -4.1682   58.3841   77.0318 C.ar    1  UNL1        0.0305
     33 C          -0.0370   57.4531   76.5962 C.3     1  UNL1        0.0455
     34 C           0.7159   57.0216   77.8435 C.3     1  UNL1        0.0066
     35 C          -0.0788   55.9350   78.5403 C.3     1  UNL1        0.0052
     36 C          -1.4372   56.4729   78.9929 C.3     1  UNL1        0.0288
@<TRIPOS>BOND
     1    16    17    1
     2    17    18    2
     3    17     6    1
     4     6     7    2
     5     6     2    1
     6     7     8    1
     7     8     9   ar
     8     8    14   ar
     9     9    10   ar
    10    10    11   ar
    11    11    12    1
    12    11    13   ar
    13    12    15    1
    14    13    14   ar
    15     2     3    2
    16     2     4   am
    17     4     1    1
    18     4     5    1
    19     1    19    1
    20    19    20    1
    21    20    21    1
    22    21    23    1
    23    21    22    1
    24    23    24   ar
    25    23    32   ar
    26    24    25   ar
    27    24    36    1
    28    25    26   ar
    29    25    33    1
    30    26    27   ar
    31    27    28   ar
    32    27    32   ar
    33    28    29   ar
    34    29    30   ar
    35    30    31   ar
    36    31    32   ar
    37    33    34    1
    38    34    35    1
    39    35    36    1
#	Name:			CHEMBL4063024
#	Creating user name:	trannguyen
#	Creation time:		Tue Feb  8 17:54:08 2022


#	Modifying user name:	trannguyen
#	Modification time:	Tue Feb  8 17:54:08 2022

@<TRIPOS>MOLECULE
CHEMBL4063024
 38 41 0 0 0
SMALL
GASTEIGER

@<TRIPOS>ATOM
      1 C          -1.2297   58.8577   77.2287 C.2     1  UNL1        0.2294
      2 O          -0.7118   58.3998   78.2252 O.2     1  UNL1       -0.2746
      3 N          -0.7851   60.0188   76.6513 N.am    1  UNL1       -0.3039
      4 H          -1.1382   60.2903   75.7421 H       1  UNL1        0.1494
      5 C          -2.3907   58.1963   76.4894 C.3     1  UNL1        0.1380
      6 C          -1.8689   57.2577   75.4030 C.2     1  UNL1        0.1597
      7 C          -2.2634   55.8135   75.4239 C.3     1  UNL1        0.0728
      8 O          -1.1008   57.6990   74.5329 O.2     1  UNL1       -0.2955
      9 C          -3.3564   59.2296   75.8907 C.3     1  UNL1        0.0430
     10 C          -7.1771   59.5957   75.9934 C.ar    1  UNL1        0.1718
     11 C          -5.8157   59.8747   75.7817 C.ar    1  UNL1        0.0358
     12 C          -4.8233   58.9501   76.1484 C.ar    1  UNL1       -0.0181
     13 C          -5.2144   57.7372   76.7347 C.ar    1  UNL1       -0.0009
     14 C          -6.5627   57.4478   76.9376 C.ar    1  UNL1        0.0395
     15 C          -7.5376   58.3663   76.5594 C.ar    1  UNL1        0.1677
     16 O          -8.8481   58.0211   76.7345 O.3     1  UNL1       -0.5029
     17 H          -8.9124   57.1509   77.1562 H       1  UNL1        0.2923
     18 C          -7.5401   61.9068   75.6560 C.3     1  UNL1        0.2526
     19 O          -8.0477   60.5746   75.5786 O.3     1  UNL1       -0.4684
     20 C           0.3428   60.7334   77.2071 C.3     1  UNL1        0.0912
     21 C          -0.1631   61.8906   78.0521 C.3     1  UNL1        0.0424
     22 C          -1.2818   62.6542   77.3629 C.3     1  UNL1        0.0888
     23 N          -2.0565   63.3638   78.3606 N.pl3   1  UNL1       -0.3328
     24 H          -1.4955   63.6471   79.1583 H       1  UNL1        0.1468
     25 C          -3.4151   63.2099   78.6732 C.ar    1  UNL1        0.0431
     26 C          -4.2525   64.3342   78.3876 C.ar    1  UNL1        0.0045
     27 C          -5.6222   64.2103   78.6148 C.ar    1  UNL1        0.0561
     28 N          -6.2071   63.0402   78.9357 N.ar    1  UNL1       -0.2499
     29 C          -5.4489   61.9618   79.1422 C.ar    1  UNL1        0.0820
     30 C          -6.1391   60.7870   79.4213 C.ar    1  UNL1        0.0191
     31 C          -5.4965   59.5883   79.7170 C.ar    1  UNL1        0.0015
     32 C          -4.1215   59.5775   79.7959 C.ar    1  UNL1        0.0001
     33 C          -3.4153   60.7538   79.5258 C.ar    1  UNL1        0.0027
     34 C          -4.0381   61.9742   79.1047 C.ar    1  UNL1        0.0305
     35 C          -6.5748   65.3696   78.4829 C.3     1  UNL1        0.0455
     36 C          -5.8802   66.7239   78.5105 C.3     1  UNL1        0.0066
     37 C          -4.7437   66.7145   77.5033 C.3     1  UNL1        0.0052
     38 C          -3.6964   65.6592   77.8838 C.3     1  UNL1        0.0288
@<TRIPOS>BOND
     1    18    19    1
     2    19    10    1
     3    10    11   ar
     4    10    15   ar
     5    11    12   ar
     6    12     9    1
     7    12    13   ar
     8     9     5    1
     9     5     6    1
    10     5     1    1
    11     6     7    1
    12     6     8    2
    13     1     2    2
    14     1     3   am
    15     3    20    1
    16     3     4    1
    17    20    21    1
    18    21    22    1
    19    22    23    1
    20    23    25    1
    21    23    24    1
    22    25    26   ar
    23    25    34   ar
    24    26    27   ar
    25    26    38    1
    26    27    28   ar
    27    27    35    1
    28    28    29   ar
    29    29    30   ar
    30    29    34   ar
    31    30    31   ar
    32    31    32   ar
    33    32    33   ar
    34    33    34   ar
    35    35    36    1
    36    36    37    1
    37    37    38    1
    38    13    14   ar
    39    14    15   ar
    40    15    16    1
    41    16    17    1
#	Name:			CHEMBL4064355
#	Creating user name:	trannguyen
#	Creation time:		Tue Feb  8 17:54:08 2022


#	Modifying user name:	trannguyen
#	Modification time:	Tue Feb  8 17:54:08 2022

@<TRIPOS>MOLECULE
CHEMBL4064355
 39 42 0 0 0
SMALL
GASTEIGER

@<TRIPOS>ATOM
      1 C           0.9706   61.5451   76.5050 C.3     1  UNL1        0.0898
      2 C          -1.0989   61.5321   77.8613 C.2     1  UNL1        0.2486
      3 O          -0.5905   62.3376   78.6541 O.2     1  UNL1       -0.2700
      4 N          -0.3987   61.1018   76.7684 N.am    1  UNL1       -0.3008
      5 H          -0.8061   60.3646   76.1893 H       1  UNL1        0.1497
      6 C          -2.7543   59.8636   77.4182 C.2     1  UNL1        0.0075
      7 C          -2.5030   61.0344   78.0625 C.2     1  UNL1        0.0880
      8 C          -6.1807   58.8731   76.1754 C.ar    1  UNL1        0.1721
      9 C          -4.9597   59.5498   76.2979 C.ar    1  UNL1        0.0400
     10 C          -3.9836   59.1049   77.1982 C.ar    1  UNL1        0.0035
     11 C          -4.2343   57.9734   77.9792 C.ar    1  UNL1        0.0033
     12 C          -5.4153   57.2503   77.8079 C.ar    1  UNL1        0.0398
     13 C          -6.3783   57.6917   76.8986 C.ar    1  UNL1        0.1677
     14 O          -7.4988   56.9327   76.7089 O.3     1  UNL1       -0.5029
     15 H          -7.3804   56.0750   77.1484 H       1  UNL1        0.2923
     16 C          -8.0273   60.3191   75.8865 C.3     1  UNL1        0.2526
     17 O          -7.0657   59.4446   75.2981 O.3     1  UNL1       -0.4684
     18 C          -3.5271   61.8382   78.8255 C.2     1  UNL1        0.1779
     19 C          -4.0299   61.4182   80.2011 C.3     1  UNL1        0.0774
     20 O          -3.9550   62.8846   78.3439 O.2     1  UNL1       -0.2912
     21 C           2.0239   60.5281   76.9464 C.3     1  UNL1        0.0230
     22 C           1.5591   59.0643   76.9191 C.3     1  UNL1        0.0229
     23 C           1.7948   58.2181   78.1812 C.3     1  UNL1        0.0871
     24 N           0.7142   57.3106   78.5535 N.pl3   1  UNL1       -0.3328
     25 H           0.4496   57.4771   79.5192 H       1  UNL1        0.1468
     26 C           0.4374   55.9936   78.1469 C.ar    1  UNL1        0.0431
     27 C          -0.3648   55.8136   76.9773 C.ar    1  UNL1        0.0045
     28 C          -0.4883   54.5292   76.4287 C.ar    1  UNL1        0.0561
     29 N           0.1905   53.4644   76.8862 N.ar    1  UNL1       -0.2499
     30 C           0.8699   53.5925   78.0200 C.ar    1  UNL1        0.0820
     31 C           1.4435   52.4241   78.4991 C.ar    1  UNL1        0.0191
     32 C           2.0804   52.3729   79.7328 C.ar    1  UNL1        0.0015
     33 C           2.1152   53.5125   80.5129 C.ar    1  UNL1        0.0001
     34 C           1.5579   54.6986   80.0290 C.ar    1  UNL1        0.0027
     35 C           0.9703   54.8058   78.7470 C.ar    1  UNL1        0.0305
     36 C          -1.4388   54.2145   75.3053 C.3     1  UNL1        0.0455
     37 C          -2.6174   55.1738   75.2914 C.3     1  UNL1        0.0066
     38 C          -2.0804   56.5919   75.1991 C.3     1  UNL1        0.0052
     39 C          -1.2038   56.9445   76.4066 C.3     1  UNL1        0.0288
@<TRIPOS>BOND
     1    16    17    1
     2    17     8    1
     3     8     9   ar
     4     8    13   ar
     5     9    10   ar
     6    10     6    1
     7    10    11   ar
     8     6     7    2
     9     7    18    1
    10     7     2    1
    11    18    19    1
    12    18    20    2
    13     2     3    2
    14     2     4   am
    15     4     1    1
    16     4     5    1
    17     1    21    1
    18    21    22    1
    19    22    23    1
    20    23    24    1
    21    24    26    1
    22    24    25    1
    23    26    27   ar
    24    26    35   ar
    25    27    28   ar
    26    27    39    1
    27    28    29   ar
    28    28    36    1
    29    29    30   ar
    30    30    31   ar
    31    30    35   ar
    32    31    32   ar
    33    32    33   ar
    34    33    34   ar
    35    34    35   ar
    36    36    37    1
    37    37    38    1
    38    38    39    1
    39    11    12   ar
    40    12    13   ar
    41    13    14    1
    42    14    15    1
#	Name:			CHEMBL4074267
#	Creating user name:	trannguyen
#	Creation time:		Tue Feb  8 17:54:08 2022


#	Modifying user name:	trannguyen
#	Modification time:	Tue Feb  8 17:54:08 2022

@<TRIPOS>MOLECULE
CHEMBL4074267
 37 40 0 0 0
SMALL
GASTEIGER

@<TRIPOS>ATOM
      1 C          -7.5480   62.1196   76.6993 C.3     1  UNL1        0.0230
      2 C          -7.9572   60.8518   75.9501 C.3     1  UNL1        0.0898
      3 C          -5.8657   59.5489   75.6204 C.2     1  UNL1        0.2486
      4 O          -5.5346   60.2291   74.6688 O.2     1  UNL1       -0.2700
      5 N          -7.0630   59.7562   76.2861 N.am    1  UNL1       -0.3008
      6 H          -7.1761   59.3017   77.1819 H       1  UNL1        0.1497
      7 C          -4.9847   58.4114   76.1510 C.2     1  UNL1        0.0880
      8 C          -3.7835   58.3234   75.5240 C.2     1  UNL1        0.0074
      9 C          -2.6672   57.3879   75.7287 C.ar    1  UNL1        0.0004
     10 C          -1.5180   57.7978   76.4216 C.ar    1  UNL1        0.0031
     11 C          -0.4290   56.9311   76.5717 C.ar    1  UNL1        0.0366
     12 C          -0.5186   55.6320   76.0853 C.ar    1  UNL1        0.1337
     13 O           0.5166   54.7532   76.2043 O.3     1  UNL1       -0.5055
     14 C          -1.6795   55.1873   75.4629 C.ar    1  UNL1        0.0366
     15 C          -2.7529   56.0657   75.2787 C.ar    1  UNL1        0.0031
     16 H           1.2326   55.1736   76.7090 H       1  UNL1        0.2922
     17 C          -4.7382   57.3618   78.5547 C.3     1  UNL1        0.0774
     18 C          -5.4757   57.5322   77.2601 C.2     1  UNL1        0.1779
     19 O          -6.5293   56.9031   77.1041 O.2     1  UNL1       -0.2912
     20 C          -8.0893   62.1762   78.1335 C.3     1  UNL1        0.0229
     21 C          -7.1341   61.4789   79.1105 C.3     1  UNL1        0.0871
     22 N          -6.1574   62.3998   79.6665 N.pl3   1  UNL1       -0.3328
     23 H          -6.4848   62.9431   80.4604 H       1  UNL1        0.1468
     24 C          -4.9708   62.8729   79.1011 C.ar    1  UNL1        0.0431
     25 C          -4.9469   64.2495   78.7313 C.ar    1  UNL1        0.0045
     26 C          -3.7947   64.7564   78.1269 C.ar    1  UNL1        0.0561
     27 N          -2.6832   64.0198   77.9331 N.ar    1  UNL1       -0.2499
     28 C          -2.6648   62.7502   78.3410 C.ar    1  UNL1        0.0820
     29 C          -1.4641   62.0743   78.1625 C.ar    1  UNL1        0.0191
     30 C          -1.2836   60.7533   78.5631 C.ar    1  UNL1        0.0015
     31 C          -2.3443   60.0758   79.1258 C.ar    1  UNL1        0.0001
     32 C          -3.5673   60.7312   79.2795 C.ar    1  UNL1        0.0027
     33 C          -3.7702   62.0984   78.9315 C.ar    1  UNL1        0.0305
     34 C          -3.6589   66.2013   77.7246 C.3     1  UNL1        0.0455
     35 C          -4.9934   66.9160   77.5782 C.3     1  UNL1        0.0066
     36 C          -5.8312   66.6668   78.8211 C.3     1  UNL1        0.0052
     37 C          -6.1271   65.1708   78.9904 C.3     1  UNL1        0.0288
@<TRIPOS>BOND
     1    17    18    1
     2    18    19    2
     3    18     7    1
     4     7     8    2
     5     7     3    1
     6     8     9    1
     7     9    10   ar
     8     9    15   ar
     9    10    11   ar
    10    11    12   ar
    11    12    13    1
    12    12    14   ar
    13    13    16    1
    14    14    15   ar
    15     3     4    2
    16     3     5   am
    17     5     2    1
    18     5     6    1
    19     2     1    1
    20     1    20    1
    21    20    21    1
    22    21    22    1
    23    22    24    1
    24    22    23    1
    25    24    25   ar
    26    24    33   ar
    27    25    26   ar
    28    25    37    1
    29    26    27   ar
    30    26    34    1
    31    27    28   ar
    32    28    29   ar
    33    28    33   ar
    34    29    30   ar
    35    30    31   ar
    36    31    32   ar
    37    32    33   ar
    38    34    35    1
    39    35    36    1
    40    36    37    1
#	Name:			CHEMBL4075849
#	Creating user name:	trannguyen
#	Creation time:		Tue Feb  8 17:54:08 2022


#	Modifying user name:	trannguyen
#	Modification time:	Tue Feb  8 17:54:08 2022

@<TRIPOS>MOLECULE
CHEMBL4075849
 38 41 0 0 0
SMALL
GASTEIGER

@<TRIPOS>ATOM
      1 C          -6.0610   59.7203   75.7725 C.2     1  UNL1        0.2486
      2 O          -5.7384   59.8108   74.5912 O.2     1  UNL1       -0.2700
      3 N          -5.5236   58.7312   76.5719 N.am    1  UNL1       -0.3007
      4 H          -5.5784   58.8441   77.5863 H       1  UNL1        0.1497
      5 C          -6.5092   61.3753   77.3688 C.2     1  UNL1        0.0075
      6 C          -7.0823   60.6570   76.3742 C.2     1  UNL1        0.0880
      7 C          -7.4309   64.8604   78.4159 C.ar    1  UNL1        0.1721
      8 C          -6.8864   63.7883   77.7047 C.ar    1  UNL1        0.0400
      9 C          -7.0261   62.4792   78.1727 C.ar    1  UNL1        0.0035
     10 C          -7.6281   62.2379   79.4089 C.ar    1  UNL1        0.0033
     11 C          -8.1497   63.3025   80.1374 C.ar    1  UNL1        0.0398
     12 C          -8.0764   64.6038   79.6318 C.ar    1  UNL1        0.1677
     13 O          -8.6774   65.6032   80.3430 O.3     1  UNL1       -0.5029
     14 H          -9.1212   65.2274   81.1196 H       1  UNL1        0.2923
     15 C          -6.1976   66.8704   78.1351 C.3     1  UNL1        0.2526
     16 O          -7.3051   66.0602   77.7689 O.3     1  UNL1       -0.4684
     17 C          -8.4847   60.7328   75.8467 C.2     1  UNL1        0.1779
     18 C          -9.6499   60.1779   76.6380 C.3     1  UNL1        0.0774
     19 O          -8.6860   61.2669   74.7611 O.2     1  UNL1       -0.2912
     20 C          -4.5305   57.8762   75.9483 C.3     1  UNL1        0.0915
     21 C          -3.2292   57.7121   76.7079 C.3     1  UNL1        0.0424
     22 C          -3.2636   58.1404   78.1758 C.3     1  UNL1        0.0888
     23 N          -2.0408   58.8218   78.5682 N.pl3   1  UNL1       -0.3328
     24 H          -1.6108   58.4203   79.3996 H       1  UNL1        0.1468
     25 C          -1.4964   60.0560   78.2091 C.ar    1  UNL1        0.0431
     26 C          -2.0552   61.3170   78.5134 C.ar    1  UNL1        0.0045
     27 C          -1.4089   62.4611   78.0105 C.ar    1  UNL1        0.0561
     28 N          -0.2388   62.4370   77.3343 N.ar    1  UNL1       -0.2499
     29 C           0.2913   61.2587   77.0196 C.ar    1  UNL1        0.0820
     30 C           1.4585   61.2706   76.2606 C.ar    1  UNL1        0.0191
     31 C           2.0458   60.0969   75.7945 C.ar    1  UNL1        0.0015
     32 C           1.4459   58.8841   76.0862 C.ar    1  UNL1        0.0001
     33 C           0.2878   58.8551   76.8686 C.ar    1  UNL1        0.0027
     34 C          -0.3096   60.0349   77.3851 C.ar    1  UNL1        0.0305
     35 C          -1.9733   63.8478   78.1841 C.3     1  UNL1        0.0455
     36 C          -3.4573   63.8474   78.5114 C.3     1  UNL1        0.0066
     37 C          -3.6892   62.9288   79.6964 C.3     1  UNL1        0.0052
     38 C          -3.3142   61.4939   79.3297 C.3     1  UNL1        0.0288
@<TRIPOS>BOND
     1    15    16    1
     2    16     7    1
     3     7     8   ar
     4     7    12   ar
     5     8     9   ar
     6     9     5    1
     7     9    10   ar
     8     5     6    2
     9     6    17    1
    10     6     1    1
    11    17    18    1
    12    17    19    2
    13     1     2    2
    14     1     3   am
    15     3    20    1
    16     3     4    1
    17    20    21    1
    18    21    22    1
    19    22    23    1
    20    23    25    1
    21    23    24    1
    22    25    26   ar
    23    25    34   ar
    24    26    27   ar
    25    26    38    1
    26    27    28   ar
    27    27    35    1
    28    28    29   ar
    29    29    30   ar
    30    29    34   ar
    31    30    31   ar
    32    31    32   ar
    33    32    33   ar
    34    33    34   ar
    35    35    36    1
    36    36    37    1
    37    37    38    1
    38    10    11   ar
    39    11    12   ar
    40    12    13    1
    41    13    14    1
#	Name:			CHEMBL4082185
#	Creating user name:	trannguyen
#	Creation time:		Tue Feb  8 17:54:08 2022


#	Modifying user name:	trannguyen
#	Modification time:	Tue Feb  8 17:54:08 2022

@<TRIPOS>MOLECULE
CHEMBL4082185
 39 42 0 0 0
SMALL
GASTEIGER

@<TRIPOS>ATOM
      1 C           1.6990   60.7538   76.8741 C.3     1  UNL1        0.0018
      2 C           2.5701   60.5691   75.6211 C.3     1  UNL1        0.0213
      3 C           2.2349   59.3444   74.7546 C.3     1  UNL1        0.0897
      4 C           0.6695   57.7502   75.9150 C.2     1  UNL1        0.2486
      5 O           1.6038   57.1698   76.5025 O.2     1  UNL1       -0.2700
      6 N           0.9132   58.7880   75.0498 N.am    1  UNL1       -0.3008
      7 H           0.1065   59.1891   74.5647 H       1  UNL1        0.1497
      8 C          -0.7973   57.3353   76.1512 C.2     1  UNL1        0.0880
      9 C          -1.6688   58.3707   76.2623 C.2     1  UNL1        0.0074
     10 C          -3.1386   58.5239   76.4125 C.ar    1  UNL1        0.0004
     11 C          -3.9156   58.9149   75.3089 C.ar    1  UNL1        0.0031
     12 C          -5.2440   59.3454   75.4686 C.ar    1  UNL1        0.0366
     13 C          -5.8012   59.4003   76.7394 C.ar    1  UNL1        0.1337
     14 O          -7.0505   59.9069   76.9485 O.3     1  UNL1       -0.5055
     15 C          -5.0723   58.9697   77.8410 C.ar    1  UNL1        0.0366
     16 C          -3.7450   58.5327   77.6798 C.ar    1  UNL1        0.0031
     17 H          -7.3496   60.3540   76.1384 H       1  UNL1        0.2922
     18 C          -2.3831   55.3430   75.5112 C.3     1  UNL1        0.0774
     19 C          -1.1589   55.8745   76.2138 C.2     1  UNL1        0.1779
     20 O          -0.4428   55.0878   76.8399 O.2     1  UNL1       -0.2912
     21 C           0.5087   61.7259   76.7879 C.3     1  UNL1        0.0018
     22 C          -0.4814   61.6706   77.9588 C.3     1  UNL1        0.0212
     23 C           0.0410   62.3470   79.2417 C.3     1  UNL1        0.0870
     24 N           0.4546   61.4367   80.3116 N.pl3   1  UNL1       -0.3328
     25 H          -0.2060   61.4147   81.0770 H       1  UNL1        0.1468
     26 C           1.3234   60.3411   80.2386 C.ar    1  UNL1        0.0431
     27 C           0.8795   59.0012   80.1617 C.ar    1  UNL1        0.0045
     28 C           1.8319   57.9792   80.2820 C.ar    1  UNL1        0.0561
     29 N           3.1594   58.1938   80.3220 N.ar    1  UNL1       -0.2499
     30 C           3.6021   59.4429   80.2347 C.ar    1  UNL1        0.0820
     31 C           4.9783   59.5913   80.1436 C.ar    1  UNL1        0.0191
     32 C           5.5752   60.8396   80.0096 C.ar    1  UNL1        0.0015
     33 C           4.7753   61.9696   79.9994 C.ar    1  UNL1        0.0001
     34 C           3.3858   61.8401   80.1149 C.ar    1  UNL1        0.0027
     35 C           2.7491   60.5703   80.2081 C.ar    1  UNL1        0.0305
     36 C           1.4470   56.5257   80.3153 C.3     1  UNL1        0.0455
     37 C          -0.0080   56.3438   80.7101 C.3     1  UNL1        0.0066
     38 C          -0.8660   57.1344   79.7391 C.3     1  UNL1        0.0052
     39 C          -0.5423   58.6301   79.8015 C.3     1  UNL1        0.0288
@<TRIPOS>BOND
     1    18    19    1
     2    19    20    2
     3    19     8    1
     4     8     9    2
     5     8     4    1
     6     9    10    1
     7    10    11   ar
     8    10    16   ar
     9    11    12   ar
    10    12    13   ar
    11    13    14    1
    12    13    15   ar
    13    14    17    1
    14    15    16   ar
    15     4     5    2
    16     4     6   am
    17     6     3    1
    18     6     7    1
    19     3     2    1
    20     2     1    1
    21     1    21    1
    22    21    22    1
    23    22    23    1
    24    23    24    1
    25    24    26    1
    26    24    25    1
    27    26    27   ar
    28    26    35   ar
    29    27    28   ar
    30    27    39    1
    31    28    29   ar
    32    28    36    1
    33    29    30   ar
    34    30    31   ar
    35    30    35   ar
    36    31    32   ar
    37    32    33   ar
    38    33    34   ar
    39    34    35   ar
    40    36    37    1
    41    37    38    1
    42    38    39    1
#	Name:			CHEMBL4083153
#	Creating user name:	trannguyen
#	Creation time:		Tue Feb  8 17:54:08 2022


#	Modifying user name:	trannguyen
#	Modification time:	Tue Feb  8 17:54:08 2022

@<TRIPOS>MOLECULE
CHEMBL4083153
 39 42 0 0 0
SMALL
GASTEIGER

@<TRIPOS>ATOM
      1 C           0.6286   60.4780   76.9003 C.3     1  UNL1        0.0895
      2 C          -1.1128   58.7192   77.1319 C.2     1  UNL1        0.2294
      3 O          -0.6671   58.3365   78.1959 O.2     1  UNL1       -0.2746
      4 N          -0.5677   59.7955   76.4378 N.am    1  UNL1       -0.3040
      5 H          -1.0212   60.1474   75.6100 H       1  UNL1        0.1494
      6 C          -2.3448   58.1009   76.4596 C.3     1  UNL1        0.1380
      7 C          -1.9427   57.2376   75.2712 C.2     1  UNL1        0.1597
      8 C          -2.4400   55.8145   75.2498 C.3     1  UNL1        0.0728
      9 O          -1.2326   57.6658   74.3555 O.2     1  UNL1       -0.2955
     10 C          -3.3359   59.1877   76.0419 C.3     1  UNL1        0.0430
     11 C          -7.1480   59.5652   75.9192 C.ar    1  UNL1        0.1718
     12 C          -5.7782   59.7581   75.6783 C.ar    1  UNL1        0.0358
     13 C          -4.8108   58.8473   76.1439 C.ar    1  UNL1       -0.0181
     14 C          -5.2457   57.6895   76.7966 C.ar    1  UNL1       -0.0009
     15 C          -6.6075   57.4770   77.0250 C.ar    1  UNL1        0.0395
     16 C          -7.5506   58.4214   76.6124 C.ar    1  UNL1        0.1677
     17 O          -8.8646   58.1877   76.9064 O.3     1  UNL1       -0.5029
     18 H          -8.9136   57.5434   77.6301 H       1  UNL1        0.2923
     19 C          -7.5181   61.8920   75.6224 C.3     1  UNL1        0.2526
     20 O          -7.9568   60.5531   75.4196 O.3     1  UNL1       -0.4684
     21 C           0.4041   61.9643   77.1846 C.3     1  UNL1        0.0230
     22 C          -0.7977   62.5307   76.4293 C.3     1  UNL1        0.0229
     23 C          -1.1890   63.9289   76.9039 C.3     1  UNL1        0.0871
     24 N          -1.7711   63.9277   78.2489 N.pl3   1  UNL1       -0.3328
     25 H          -1.1695   63.4480   78.9206 H       1  UNL1        0.1468
     26 C          -3.1170   63.5312   78.4884 C.ar    1  UNL1        0.0431
     27 C          -3.4977   62.2523   78.9741 C.ar    1  UNL1        0.0045
     28 C          -4.8655   61.9878   79.1233 C.ar    1  UNL1        0.0561
     29 N          -5.8314   62.9004   78.8952 N.ar    1  UNL1       -0.2499
     30 C          -5.4855   64.1348   78.5414 C.ar    1  UNL1        0.0820
     31 C          -6.5288   65.0409   78.4112 C.ar    1  UNL1        0.0191
     32 C          -6.3097   66.3766   78.0927 C.ar    1  UNL1        0.0015
     33 C          -5.0109   66.8093   77.8738 C.ar    1  UNL1        0.0001
     34 C          -3.9450   65.9000   77.9744 C.ar    1  UNL1        0.0027
     35 C          -4.1484   64.5341   78.3282 C.ar    1  UNL1        0.0305
     36 C          -5.3938   60.6887   79.6733 C.3     1  UNL1        0.0455
     37 C          -4.3899   59.5486   79.7131 C.3     1  UNL1        0.0066
     38 C          -3.0543   60.0464   80.2240 C.3     1  UNL1        0.0052
     39 C          -2.5188   61.1628   79.3361 C.3     1  UNL1        0.0288
@<TRIPOS>BOND
     1    19    20    1
     2    20    11    1
     3    11    12   ar
     4    11    16   ar
     5    12    13   ar
     6    13    10    1
     7    13    14   ar
     8    10     6    1
     9     6     7    1
    10     6     2    1
    11     7     8    1
    12     7     9    2
    13     2     3    2
    14     2     4   am
    15     4     1    1
    16     4     5    1
    17     1    21    1
    18    21    22    1
    19    22    23    1
    20    23    24    1
    21    24    26    1
    22    24    25    1
    23    26    27   ar
    24    26    35   ar
    25    27    28   ar
    26    27    39    1
    27    28    29   ar
    28    28    36    1
    29    29    30   ar
    30    30    31   ar
    31    30    35   ar
    32    31    32   ar
    33    32    33   ar
    34    33    34   ar
    35    34    35   ar
    36    36    37    1
    37    37    38    1
    38    38    39    1
    39    14    15   ar
    40    15    16   ar
    41    16    17    1
    42    17    18    1
#	Name:			CHEMBL4084958
#	Creating user name:	trannguyen
#	Creation time:		Tue Feb  8 17:54:08 2022


#	Modifying user name:	trannguyen
#	Modification time:	Tue Feb  8 17:54:08 2022

@<TRIPOS>MOLECULE
CHEMBL4084958
 36 39 0 0 0
SMALL
GASTEIGER

@<TRIPOS>ATOM
      1 C           1.4401   66.8425   68.5739 C.3     1  UNL1        0.0912
      2 C           1.9552   66.2007   66.2298 C.2     1  UNL1        0.2294
      3 O           0.8064   66.4679   65.8442 O.2     1  UNL1       -0.2746
      4 N           2.3555   66.4203   67.5311 N.am    1  UNL1       -0.3039
      5 H           3.2607   66.0868   67.8498 H       1  UNL1        0.1494
      6 C           3.0075   65.6395   65.2702 C.3     1  UNL1        0.1380
      7 C           4.0770   63.3823   64.6424 C.3     1  UNL1        0.0728
      8 C           3.4920   64.2684   65.7087 C.2     1  UNL1        0.1597
      9 O           3.5722   63.9458   66.8948 O.2     1  UNL1       -0.2955
     10 C           2.4478   65.6148   63.8376 C.3     1  UNL1        0.0429
     11 C           2.9685   66.7214   62.9409 C.ar    1  UNL1       -0.0211
     12 C           4.3067   66.7399   62.5246 C.ar    1  UNL1       -0.0011
     13 C           4.7872   67.7795   61.7205 C.ar    1  UNL1        0.0363
     14 C           3.9249   68.7941   61.3172 C.ar    1  UNL1        0.1337
     15 O           4.3549   69.8308   60.5433 O.3     1  UNL1       -0.5055
     16 C           2.5919   68.7830   61.6999 C.ar    1  UNL1        0.0363
     17 C           2.1179   67.7549   62.5159 C.ar    1  UNL1       -0.0011
     18 H           5.3082   69.7283   60.3907 H       1  UNL1        0.2922
     19 C           2.1019   67.8462   69.5256 C.3     1  UNL1        0.0424
     20 C           2.1545   69.2363   68.8933 C.3     1  UNL1        0.0888
     21 N           3.2894   70.0082   69.4020 N.pl3   1  UNL1       -0.3328
     22 H           2.9966   70.9333   69.7226 H       1  UNL1        0.1468
     23 C           4.5054   70.1651   68.6810 C.ar    1  UNL1        0.0431
     24 C           5.7754   70.3967   69.2681 C.ar    1  UNL1        0.0045
     25 C           6.8873   70.4797   68.4126 C.ar    1  UNL1        0.0561
     26 N           6.8248   70.2846   67.0789 N.ar    1  UNL1       -0.2499
     27 C           5.6471   70.0184   66.5209 C.ar    1  UNL1        0.0820
     28 C           5.6460   69.8036   65.1495 C.ar    1  UNL1        0.0191
     29 C           4.4764   69.5225   64.4494 C.ar    1  UNL1        0.0015
     30 C           3.2752   69.4641   65.1387 C.ar    1  UNL1        0.0001
     31 C           3.2587   69.6748   66.5235 C.ar    1  UNL1        0.0027
     32 C           4.4457   69.9463   67.2566 C.ar    1  UNL1        0.0305
     33 C           8.2888   70.7125   68.9175 C.3     1  UNL1        0.0455
     34 C           8.3450   71.3208   70.3081 C.3     1  UNL1        0.0066
     35 C           7.4418   70.5285   71.2317 C.3     1  UNL1        0.0052
     36 C           5.9950   70.5951   70.7488 C.3     1  UNL1        0.0288
@<TRIPOS>BOND
     1     7     8    1
     2     8     9    2
     3     8     6    1
     4     6    10    1
     5     6     2    1
     6    10    11    1
     7    11    12   ar
     8    11    17   ar
     9    12    13   ar
    10    13    14   ar
    11    14    15    1
    12    14    16   ar
    13    15    18    1
    14    16    17   ar
    15     2     3    2
    16     2     4   am
    17     4     1    1
    18     4     5    1
    19     1    19    1
    20    19    20    1
    21    20    21    1
    22    21    23    1
    23    21    22    1
    24    23    24   ar
    25    23    32   ar
    26    24    25   ar
    27    24    36    1
    28    25    26   ar
    29    25    33    1
    30    26    27   ar
    31    27    28   ar
    32    27    32   ar
    33    28    29   ar
    34    29    30   ar
    35    30    31   ar
    36    31    32   ar
    37    33    34    1
    38    34    35    1
    39    35    36    1
#	Name:			CHEMBL4093399
#	Creating user name:	trannguyen
#	Creation time:		Tue Feb  8 17:54:08 2022


#	Modifying user name:	trannguyen
#	Modification time:	Tue Feb  8 17:54:08 2022

@<TRIPOS>MOLECULE
CHEMBL4093399
 37 40 0 0 0
SMALL
GASTEIGER

@<TRIPOS>ATOM
      1 C          -9.4163   78.1199   70.1353 C.3     1  UNL1        0.0230
      2 C          -8.4238   77.8275   69.0256 C.3     1  UNL1        0.0895
      3 C          -6.3194   79.1082   68.8597 C.2     1  UNL1        0.2294
      4 O          -5.6709   78.1974   69.3908 O.2     1  UNL1       -0.2746
      5 N          -7.6764   79.0226   68.6632 N.am    1  UNL1       -0.3040
      6 H          -8.1913   79.8227   68.3149 H       1  UNL1        0.1494
      7 C          -5.6756   80.3773   68.3532 C.3     1  UNL1        0.1380
      8 C          -5.6016   81.7076   70.5988 C.3     1  UNL1        0.0728
      9 C          -4.8505   81.0319   69.4707 C.2     1  UNL1        0.1597
     10 O          -3.6200   80.9857   69.5027 O.2     1  UNL1       -0.2955
     11 C          -4.7854   80.0554   67.1342 C.3     1  UNL1        0.0429
     12 C          -5.3156   80.4305   65.7561 C.ar    1  UNL1       -0.0211
     13 C          -6.6914   80.6446   65.5544 C.ar    1  UNL1       -0.0011
     14 C          -7.2148   80.8343   64.2674 C.ar    1  UNL1        0.0363
     15 C          -6.3557   80.8659   63.1763 C.ar    1  UNL1        0.1337
     16 O          -6.8185   81.0299   61.9034 O.3     1  UNL1       -0.5055
     17 C          -4.9873   80.7088   63.3555 C.ar    1  UNL1        0.0363
     18 C          -4.4707   80.4673   64.6361 C.ar    1  UNL1       -0.0011
     19 H          -7.7893   80.9910   61.9155 H       1  UNL1        0.2922
     20 C          -9.1312   77.2770   71.3793 C.3     1  UNL1        0.0229
     21 C          -7.7557   77.5845   71.9810 C.3     1  UNL1        0.0871
     22 N          -7.1849   76.4011   72.6293 N.pl3   1  UNL1       -0.3328
     23 H          -6.1887   76.5110   72.7660 H       1  UNL1        0.1468
     24 C          -7.7912   75.7860   73.7555 C.ar    1  UNL1        0.0431
     25 C          -8.5309   74.5767   73.6748 C.ar    1  UNL1        0.0045
     26 C          -9.0744   74.0619   74.8602 C.ar    1  UNL1        0.0561
     27 N          -8.8525   74.5944   76.0787 N.ar    1  UNL1       -0.2499
     28 C          -8.1051   75.6894   76.1794 C.ar    1  UNL1        0.0820
     29 C          -7.9001   76.1635   77.4680 C.ar    1  UNL1        0.0191
     30 C          -7.1663   77.3167   77.7250 C.ar    1  UNL1        0.0015
     31 C          -6.6241   78.0167   76.6622 C.ar    1  UNL1        0.0001
     32 C          -6.8053   77.5435   75.3555 C.ar    1  UNL1        0.0027
     33 C          -7.5472   76.3563   75.0673 C.ar    1  UNL1        0.0305
     34 C          -9.9326   72.8233   74.8867 C.3     1  UNL1        0.0455
     35 C         -10.5512   72.5054   73.5356 C.3     1  UNL1        0.0066
     36 C          -9.4422   72.4613   72.5014 C.3     1  UNL1        0.0052
     37 C          -8.7892   73.8381   72.3797 C.3     1  UNL1        0.0288
@<TRIPOS>BOND
     1     8     9    1
     2     9    10    2
     3     9     7    1
     4     7    11    1
     5     7     3    1
     6    11    12    1
     7    12    13   ar
     8    12    18   ar
     9    13    14   ar
    10    14    15   ar
    11    15    16    1
    12    15    17   ar
    13    16    19    1
    14    17    18   ar
    15     3     4    2
    16     3     5   am
    17     5     2    1
    18     5     6    1
    19     2     1    1
    20     1    20    1
    21    20    21    1
    22    21    22    1
    23    22    24    1
    24    22    23    1
    25    24    25   ar
    26    24    33   ar
    27    25    26   ar
    28    25    37    1
    29    26    27   ar
    30    26    34    1
    31    27    28   ar
    32    28    29   ar
    33    28    33   ar
    34    29    30   ar
    35    30    31   ar
    36    31    32   ar
    37    32    33   ar
    38    34    35    1
    39    35    36    1
    40    36    37    1
#	Name:			CHEMBL409854
#	Creating user name:	trannguyen
#	Creation time:		Tue Feb  8 17:54:08 2022


#	Modifying user name:	trannguyen
#	Modification time:	Tue Feb  8 17:54:08 2022

@<TRIPOS>MOLECULE
CHEMBL409854
 36 40 0 0 0
SMALL
GASTEIGER

@<TRIPOS>ATOM
      1 C          -1.1675   52.8018   77.5783 C.3     1  UNL1        0.0147
      2 C          -2.6305   52.3359   77.3639 C.3     1  UNL1        0.0013
      3 C          -3.5342   53.4484   77.9052 C.3     1  UNL1        0.0000
      4 C          -2.6176   54.6565   78.1906 C.3     1  UNL1        0.0000
      5 C          -3.2961   56.0350   77.9647 C.3     1  UNL1        0.0000
      6 C          -2.7860   57.0885   78.9634 C.3     1  UNL1        0.0000
      7 C          -2.0227   58.2483   78.3780 C.3     1  UNL1        0.0001
      8 C          -2.7600   58.9478   77.2529 C.3     1  UNL1        0.0016
      9 C          -3.8409   59.9178   77.7587 C.3     1  UNL1        0.0198
     10 C          -5.2838   59.4298   77.7209 C.3     1  UNL1        0.0757
     11 C          -5.6527   58.6745   76.4360 C.3     1  UNL1        0.0198
     12 C          -4.4870   58.5612   75.4455 C.3     1  UNL1        0.0017
     13 C          -3.1762   57.9977   76.0855 C.3     1  UNL1        0.0001
     14 C          -2.0670   58.1467   75.0059 C.3     1  UNL1        0.0000
     15 C          -3.4121   56.4614   76.4745 C.3     1  UNL1        0.0000
     16 C          -2.8601   55.3878   75.4966 C.3     1  UNL1        0.0000
     17 C          -1.5253   54.7421   75.8657 C.3     1  UNL1        0.0000
     18 C          -1.3363   54.3734   77.3725 C.3     1  UNL1        0.0012
     19 C          -0.1563   55.2089   77.8652 C.3     1  UNL1        0.0000
     20 N          -6.1946   60.5701   78.0083 N.am    1  UNL1       -0.2760
     21 C          -6.8629   61.2041   76.8568 C.3     1  UNL1        0.1151
     22 C          -6.0891   61.2018   79.2338 C.2     1  UNL1        0.2492
     23 O          -5.5373   60.6817   80.2243 O.2     1  UNL1       -0.2699
     24 C          -6.6164   62.5914   79.3289 C.2     1  UNL1        0.0579
     25 C          -5.7927   63.6469   79.4337 C.2     1  UNL1        0.0047
     26 C          -6.2645   65.0362   79.4329 C.ar    1  UNL1        0.0001
     27 C          -6.9454   65.5290   80.5532 C.ar    1  UNL1        0.0000
     28 C          -7.3489   66.8662   80.6092 C.ar    1  UNL1        0.0000
     29 C          -7.0686   67.7273   79.5501 C.ar    1  UNL1        0.0000
     30 C          -6.3838   67.2540   78.4341 C.ar    1  UNL1        0.0000
     31 C          -5.9794   65.9198   78.3790 C.ar    1  UNL1        0.0000
     32 C          -0.7929   53.2776   80.1301 C.3     1  UNL1        0.0173
     33 C          -0.5832   52.2850   78.9665 C.3     1  UNL1        0.0576
     34 N           0.8542   51.8702   78.9033 N.3     1  UNL1       -0.2716
     35 C           1.4437   51.8460   77.5630 C.3     1  UNL1        0.0896
     36 C           1.7002   52.6578   79.8087 C.3     1  UNL1        0.0896
@<TRIPOS>BOND
     1    32    33    1
     2    33    34    1
     3    33     1    1
     4     1     2    1
     5     1    18    1
     6     2     3    1
     7     3     4    1
     8     4     5    1
     9     4    18    1
    10     5     6    1
    11     5    15    1
    12     6     7    1
    13     7     8    1
    14     8     9    1
    15     8    13    1
    16     9    10    1
    17    10    11    1
    18    10    20    1
    19    20    21    1
    20    20    22   am
    21    22    23    2
    22    22    24    1
    23    24    25    2
    24    25    26    1
    25    26    27   ar
    26    26    31   ar
    27    27    28   ar
    28    28    29   ar
    29    29    30   ar
    30    30    31   ar
    31    11    12    1
    32    12    13    1
    33    13    15    1
    34    13    14    1
    35    15    16    1
    36    16    17    1
    37    17    18    1
    38    18    19    1
    39    34    35    1
    40    34    36    1
#	Name:			CHEMBL413039
#	Creating user name:	trannguyen
#	Creation time:		Tue Feb  8 17:54:08 2022


#	Modifying user name:	trannguyen
#	Modification time:	Tue Feb  8 17:54:08 2022

@<TRIPOS>MOLECULE
CHEMBL413039
 40 44 0 0 0
SMALL
GASTEIGER

@<TRIPOS>ATOM
      1 C           0.3943   58.4455   76.7921 C.3     1  UNL1        0.1888
      2 C           1.4187   58.1292   77.9314 C.3     1  UNL1        0.1390
      3 C           0.9003   57.2215   79.0641 C.3     1  UNL1        0.1319
      4 O           0.2615   57.9865   80.0951 O.3     1  UNL1       -0.3827
      5 C          -0.0214   56.1180   78.5771 C.3     1  UNL1        0.0312
      6 C          -1.2229   56.5872   77.7079 C.3     1  UNL1        0.0058
      7 C          -1.9367   55.2711   77.2966 C.3     1  UNL1        0.0002
      8 C          -2.2040   57.5969   78.4217 C.3     1  UNL1        0.0002
      9 C          -2.8162   57.0679   79.7579 C.3     1  UNL1        0.0000
     10 C          -4.2852   56.6040   79.7563 C.3     1  UNL1        0.0000
     11 C          -5.2079   57.5098   78.9194 C.3     1  UNL1        0.0012
     12 C          -5.2606   58.9130   79.5628 C.3     1  UNL1        0.0000
     13 C          -4.5716   57.5037   77.4996 C.3     1  UNL1        0.0000
     14 C          -5.7129   57.9215   76.5923 C.3     1  UNL1        0.0000
     15 C          -6.8639   57.0669   77.1228 C.3     1  UNL1        0.0013
     16 C          -6.6421   56.9151   78.6609 C.3     1  UNL1        0.0147
     17 C          -3.2496   58.2832   77.4792 C.3     1  UNL1        0.0000
     18 C          -2.7162   58.6774   76.0950 C.3     1  UNL1        0.0001
     19 C          -1.7193   57.7106   75.4806 C.3     1  UNL1        0.0036
     20 C          -0.6073   57.2790   76.4612 C.3     1  UNL1        0.0420
     21 H           0.0121   57.3605   80.7985 H       1  UNL1        0.2104
     22 N           1.9564   59.3548   78.5596 N.am    1  UNL1       -0.2971
     23 C           3.2630   59.4987   78.9540 C.2     1  UNL1        0.2460
     24 O           4.0849   58.5804   78.8539 O.2     1  UNL1       -0.2701
     25 H           1.2598   60.0412   78.8321 H       1  UNL1        0.1499
     26 C           3.6681   60.8008   79.5738 C.ar    1  UNL1        0.0534
     27 C           2.7334   61.8435   79.5418 C.ar    1  UNL1        0.0045
     28 C           3.0623   63.1144   80.0149 C.ar    1  UNL1        0.0001
     29 C           4.3259   63.3507   80.5488 C.ar    1  UNL1        0.0000
     30 C           5.2482   62.3075   80.6423 C.ar    1  UNL1        0.0001
     31 C           4.9212   61.0297   80.1644 C.ar    1  UNL1        0.0045
     32 C          -7.8898   57.4239   79.4810 C.3     1  UNL1        0.0576
     33 C          -8.5690   56.2985   80.3020 C.3     1  UNL1        0.0173
     34 N          -8.9112   58.1799   78.6990 N.3     1  UNL1       -0.2716
     35 C         -10.2708   57.6590   78.9163 C.3     1  UNL1        0.0896
     36 C          -8.9228   59.6167   78.9807 C.3     1  UNL1        0.0896
     37 O           1.1379   58.6067   75.5423 O.3     1  UNL1       -0.4504
     38 C           2.6843   59.5578   74.0869 C.3     1  UNL1        0.1212
     39 C           1.7403   59.7848   75.2341 C.2     1  UNL1        0.3175
     40 O           1.5428   60.8639   75.7704 O.2     1  UNL1       -0.2501
@<TRIPOS>BOND
     1    38    39    1
     2    39    40    2
     3    39    37    1
     4    37     1    1
     5     1     2    1
     6     1    20    1
     7     2    22    1
     8     2     3    1
     9    22    23   am
    10    22    25    1
    11    23    24    2
    12    23    26    1
    13    26    27   ar
    14    26    31   ar
    15    27    28   ar
    16    28    29   ar
    17    29    30   ar
    18    30    31   ar
    19     3     4    1
    20     3     5    1
    21     4    21    1
    22     5     6    1
    23     6     7    1
    24     6     8    1
    25     6    20    1
    26     8     9    1
    27     8    17    1
    28     9    10    1
    29    10    11    1
    30    11    12    1
    31    11    13    1
    32    11    16    1
    33    13    14    1
    34    13    17    1
    35    14    15    1
    36    15    16    1
    37    16    32    1
    38    32    34    1
    39    32    33    1
    40    34    35    1
    41    34    36    1
    42    17    18    1
    43    18    19    1
    44    19    20    1
#	Name:			CHEMBL4159171
#	Creating user name:	trannguyen
#	Creation time:		Tue Feb  8 17:54:08 2022


#	Modifying user name:	trannguyen
#	Modification time:	Tue Feb  8 17:54:08 2022

@<TRIPOS>MOLECULE
CHEMBL4159171
 28 32 0 0 0
SMALL
GASTEIGER

@<TRIPOS>ATOM
      1 N           2.8326   69.6209   68.2904 N.pl3   1  UNL1       -0.2988
      2 C           2.4818   68.8845   69.3708 C.3     1  UNL1        0.1177
      3 C           1.8036   67.6835   69.2144 C.2     1  UNL1       -0.0050
      4 C           1.5296   67.2205   67.9287 C.2     1  UNL1       -0.0040
      5 C           1.9678   67.9432   66.8115 C.2     1  UNL1        0.0147
      6 C           2.6267   69.1531   67.0333 C.2     1  UNL1        0.0593
      7 C           3.4810   70.9493   68.4701 C.3     1  UNL1        0.1180
      8 C           9.1358   70.8863   69.8766 C.3     1  UNL1        0.0310
      9 C           7.6788   70.8890   69.5186 C.ar    1  UNL1       -0.0219
     10 C           7.2668   71.2656   68.2404 C.ar    1  UNL1       -0.0045
     11 C           5.9118   71.2597   67.9055 C.ar    1  UNL1       -0.0029
     12 C           4.9442   70.8579   68.8398 C.ar    1  UNL1       -0.0024
     13 C           5.3582   70.5044   70.1296 C.ar    1  UNL1       -0.0029
     14 C           6.7125   70.5029   70.4520 C.ar    1  UNL1       -0.0045
     15 C           1.7269   67.4350   65.4052 C.3     1  UNL1        0.1336
     16 N           2.9640   67.0038   64.7580 N.ar    1  UNL1       -0.3267
     17 C           3.8850   67.8281   64.1575 C.ar    1  UNL1        0.0334
     18 C           4.8146   67.0382   63.5116 C.ar    1  UNL1       -0.0091
     19 C           4.5167   65.6836   63.8192 C.ar    1  UNL1        0.0129
     20 C           5.1213   64.4557   63.4847 C.ar    1  UNL1        0.0012
     21 C           4.6127   63.2670   64.0145 C.ar    1  UNL1        0.0001
     22 C           3.5341   63.2931   64.8915 C.ar    1  UNL1        0.0015
     23 C           2.9138   64.4986   65.2370 C.ar    1  UNL1        0.0172
     24 C           3.4010   65.6878   64.6656 C.ar    1  UNL1        0.0596
     25 C           5.9645   67.5929   62.7341 C.3     1  UNL1        0.0275
     26 C           5.8322   69.1127   62.5268 C.3     1  UNL1        0.0051
     27 C           5.3063   69.8260   63.7819 C.3     1  UNL1        0.0066
     28 C           3.9048   69.3246   64.1782 C.3     1  UNL1        0.0435
@<TRIPOS>BOND
     1     8     9    1
     2     9    10   ar
     3     9    14   ar
     4    10    11   ar
     5    11    12   ar
     6    12     7    1
     7    12    13   ar
     8     7     1    1
     9     1     2    1
    10     1     6    1
    11     2     3    1
    12     3     4    2
    13     4     5    1
    14     5    15    1
    15     5     6    2
    16    15    16    1
    17    16    17   ar
    18    16    24   ar
    19    17    18   ar
    20    17    28    1
    21    18    19   ar
    22    18    25    1
    23    19    20   ar
    24    19    24   ar
    25    20    21   ar
    26    21    22   ar
    27    22    23   ar
    28    23    24   ar
    29    25    26    1
    30    26    27    1
    31    27    28    1
    32    13    14   ar
#	Name:			CHEMBL4159647
#	Creating user name:	trannguyen
#	Creation time:		Tue Feb  8 17:54:08 2022


#	Modifying user name:	trannguyen
#	Modification time:	Tue Feb  8 17:54:08 2022

@<TRIPOS>MOLECULE
CHEMBL4159647
 28 32 0 0 0
SMALL
GASTEIGER

@<TRIPOS>ATOM
      1 N          -5.6099   58.4284   76.4557 N.pl3   1  UNL1       -0.2986
      2 C          -4.8637   59.1320   75.5716 C.3     1  UNL1        0.1175
      3 C          -3.5887   58.7038   75.2105 C.2     1  UNL1       -0.0071
      4 C          -3.0699   57.5171   75.7454 C.2     1  UNL1       -0.0010
      5 C          -3.8338   56.8634   76.7113 C.2     1  UNL1        0.0131
      6 C          -5.1195   57.2984   77.0032 C.2     1  UNL1        0.0616
      7 C          -7.0038   58.8348   76.7671 C.3     1  UNL1        0.1188
      8 CL         -5.8668   60.0208   79.4809 Cl      1  UNL1       -0.0825
      9 C          -6.5200   60.9359   78.1719 C.ar    1  UNL1        0.0553
     10 C          -6.5065   62.3295   78.3079 C.ar    1  UNL1        0.0111
     11 C          -7.0709   63.1377   77.3252 C.ar    1  UNL1        0.0008
     12 C          -7.6587   62.5532   76.2074 C.ar    1  UNL1       -0.0002
     13 C          -7.6501   61.1643   76.0556 C.ar    1  UNL1       -0.0018
     14 C          -7.0658   60.3278   77.0253 C.ar    1  UNL1        0.0082
     15 C          -1.7314   56.9940   75.2759 C.3     1  UNL1        0.1322
     16 N          -0.7616   56.7998   76.3620 N.ar    1  UNL1       -0.3268
     17 C          -0.3776   55.5833   76.8779 C.ar    1  UNL1        0.0334
     18 C           0.6144   55.8043   77.8144 C.ar    1  UNL1       -0.0091
     19 C           0.8535   57.2010   77.8716 C.ar    1  UNL1        0.0129
     20 C           1.7510   58.0017   78.6079 C.ar    1  UNL1        0.0012
     21 C           1.7439   59.3876   78.4355 C.ar    1  UNL1        0.0001
     22 C           0.8281   59.9833   77.5751 C.ar    1  UNL1        0.0015
     23 C          -0.0918   59.2137   76.8523 C.ar    1  UNL1        0.0172
     24 C          -0.0409   57.8136   76.9849 C.ar    1  UNL1        0.0596
     25 C           1.2728   54.6991   78.5704 C.3     1  UNL1        0.0275
     26 C           0.4158   53.4235   78.5355 C.3     1  UNL1        0.0051
     27 C          -0.0779   53.1153   77.1122 C.3     1  UNL1        0.0066
     28 C          -0.9545   54.2446   76.5341 C.3     1  UNL1        0.0435
@<TRIPOS>BOND
     1     8     9    1
     2     9    10   ar
     3     9    14   ar
     4    10    11   ar
     5    11    12   ar
     6    12    13   ar
     7    13    14   ar
     8    14     7    1
     9     7     1    1
    10     1     2    1
    11     1     6    1
    12     2     3    1
    13     3     4    2
    14     4    15    1
    15     4     5    1
    16    15    16    1
    17    16    17   ar
    18    16    24   ar
    19    17    18   ar
    20    17    28    1
    21    18    19   ar
    22    18    25    1
    23    19    20   ar
    24    19    24   ar
    25    20    21   ar
    26    21    22   ar
    27    22    23   ar
    28    23    24   ar
    29    25    26    1
    30    26    27    1
    31    27    28    1
    32     5     6    2
#	Name:			CHEMBL4159886
#	Creating user name:	trannguyen
#	Creation time:		Tue Feb  8 17:54:08 2022


#	Modifying user name:	trannguyen
#	Modification time:	Tue Feb  8 17:54:08 2022

@<TRIPOS>MOLECULE
CHEMBL4159886
 28 32 0 0 0
SMALL
GASTEIGER

@<TRIPOS>ATOM
      1 N          -2.9052   53.3907   76.5406 N.pl3   1  UNL1       -0.2988
      2 C          -3.4969   52.1850   76.3590 C.3     1  UNL1        0.1177
      3 C          -4.6307   51.8469   77.0797 C.2     1  UNL1       -0.0050
      4 C          -5.1761   52.7647   77.9667 C.2     1  UNL1       -0.0040
      5 C          -4.6003   54.0322   78.1061 C.2     1  UNL1        0.0147
      6 C          -3.4616   54.3181   77.3501 C.2     1  UNL1        0.0593
      7 C          -1.6587   53.7082   75.7998 C.3     1  UNL1        0.1177
      8 C           0.5089   54.5812   77.6728 C.3     1  UNL1        0.0308
      9 C          -0.2174   55.5691   76.7967 C.ar    1  UNL1       -0.0242
     10 C           0.1704   56.9208   76.8611 C.ar    1  UNL1       -0.0045
     11 C          -0.4843   57.8929   76.1100 C.ar    1  UNL1       -0.0003
     12 C          -1.5375   57.5290   75.2845 C.ar    1  UNL1       -0.0003
     13 C          -1.9203   56.1898   75.1901 C.ar    1  UNL1       -0.0029
     14 C          -1.2673   55.1803   75.9293 C.ar    1  UNL1       -0.0063
     15 C          -5.1977   55.0755   79.0163 C.3     1  UNL1        0.1336
     16 N          -6.1398   55.9439   78.3087 N.ar    1  UNL1       -0.3267
     17 C          -7.5025   55.7559   78.2229 C.ar    1  UNL1        0.0334
     18 C          -8.0304   56.7765   77.4545 C.ar    1  UNL1       -0.0091
     19 C          -6.9754   57.6667   77.1304 C.ar    1  UNL1        0.0129
     20 C          -6.9212   58.8933   76.4372 C.ar    1  UNL1        0.0012
     21 C          -5.7019   59.5616   76.3060 C.ar    1  UNL1        0.0001
     22 C          -4.5436   59.0219   76.8530 C.ar    1  UNL1        0.0015
     23 C          -4.5719   57.8072   77.5472 C.ar    1  UNL1        0.0172
     24 C          -5.8012   57.1363   77.6780 C.ar    1  UNL1        0.0596
     25 C          -9.4832   56.8859   77.1315 C.3     1  UNL1        0.0275
     26 C         -10.1989   55.5473   77.3706 C.3     1  UNL1        0.0051
     27 C          -9.8087   54.9365   78.7263 C.3     1  UNL1        0.0066
     28 C          -8.2980   54.6471   78.8326 C.3     1  UNL1        0.0435
@<TRIPOS>BOND
     1     8     9    1
     2     9    10   ar
     3     9    14   ar
     4    10    11   ar
     5    11    12   ar
     6    12    13   ar
     7    13    14   ar
     8    14     7    1
     9     7     1    1
    10     1     2    1
    11     1     6    1
    12     2     3    1
    13     3     4    2
    14     4     5    1
    15     5    15    1
    16     5     6    2
    17    15    16    1
    18    16    17   ar
    19    16    24   ar
    20    17    18   ar
    21    17    28    1
    22    18    19   ar
    23    18    25    1
    24    19    20   ar
    25    19    24   ar
    26    20    21   ar
    27    21    22   ar
    28    22    23   ar
    29    23    24   ar
    30    25    26    1
    31    26    27    1
    32    27    28    1
#	Name:			CHEMBL4160961
#	Creating user name:	trannguyen
#	Creation time:		Tue Feb  8 17:54:08 2022


#	Modifying user name:	trannguyen
#	Modification time:	Tue Feb  8 17:54:08 2022

@<TRIPOS>MOLECULE
CHEMBL4160961
 28 32 0 0 0
SMALL
GASTEIGER

@<TRIPOS>ATOM
      1 N          -3.1788   57.9499   75.8641 N.pl3   1  UNL1       -0.2988
      2 C          -3.9081   58.8154   75.1416 C.3     1  UNL1        0.1177
      3 C          -5.1470   59.2656   75.5808 C.2     1  UNL1       -0.0050
      4 C          -5.6584   58.7512   76.7676 C.2     1  UNL1       -0.0040
      5 C          -4.9064   57.8486   77.5203 C.2     1  UNL1        0.0147
      6 C          -3.6648   57.4355   77.0313 C.2     1  UNL1        0.0593
      7 C          -1.8612   57.5003   75.3493 C.3     1  UNL1        0.1180
      8 CL         -2.4537   52.2640   75.1800 Cl      1  UNL1       -0.0823
      9 C          -1.6582   53.6721   75.7682 C.ar    1  UNL1        0.0574
     10 C          -0.6259   53.5463   76.6907 C.ar    1  UNL1        0.0114
     11 C          -0.0136   54.6919   77.1931 C.ar    1  UNL1        0.0006
     12 C          -0.4375   55.9590   76.7694 C.ar    1  UNL1       -0.0026
     13 C          -1.4727   56.1036   75.8258 C.ar    1  UNL1       -0.0016
     14 C          -2.0695   54.9352   75.3199 C.ar    1  UNL1        0.0088
     15 C          -5.4098   57.3255   78.8487 C.3     1  UNL1        0.1336
     16 N          -6.1560   56.0604   78.7456 N.ar    1  UNL1       -0.3267
     17 C          -5.6472   54.7785   78.6284 C.ar    1  UNL1        0.0334
     18 C          -6.7045   53.9019   78.5018 C.ar    1  UNL1       -0.0091
     19 C          -7.9061   54.6417   78.6287 C.ar    1  UNL1        0.0129
     20 C          -9.2689   54.2831   78.6218 C.ar    1  UNL1        0.0012
     21 C         -10.2478   55.2707   78.7476 C.ar    1  UNL1        0.0001
     22 C          -9.8812   56.6052   78.8853 C.ar    1  UNL1        0.0015
     23 C          -8.5347   56.9871   78.9090 C.ar    1  UNL1        0.0172
     24 C          -7.5495   55.9880   78.7743 C.ar    1  UNL1        0.0596
     25 C          -6.5186   52.4350   78.2816 C.3     1  UNL1        0.0275
     26 C          -5.1103   52.1430   77.7369 C.3     1  UNL1        0.0051
     27 C          -4.0410   52.8444   78.5787 C.3     1  UNL1        0.0066
     28 C          -4.2141   54.3672   78.5720 C.3     1  UNL1        0.0435
@<TRIPOS>BOND
     1     8     9    1
     2     9    10   ar
     3     9    14   ar
     4    10    11   ar
     5    11    12   ar
     6    12    13   ar
     7    13     7    1
     8    13    14   ar
     9     7     1    1
    10     1     2    1
    11     1     6    1
    12     2     3    1
    13     3     4    2
    14     4     5    1
    15     5    15    1
    16     5     6    2
    17    15    16    1
    18    16    17   ar
    19    16    24   ar
    20    17    18   ar
    21    17    28    1
    22    18    19   ar
    23    18    25    1
    24    19    20   ar
    25    19    24   ar
    26    20    21   ar
    27    21    22   ar
    28    22    23   ar
    29    23    24   ar
    30    25    26    1
    31    26    27    1
    32    27    28    1
#	Name:			CHEMBL4161385
#	Creating user name:	trannguyen
#	Creation time:		Tue Feb  8 17:54:08 2022


#	Modifying user name:	trannguyen
#	Modification time:	Tue Feb  8 17:54:08 2022

@<TRIPOS>MOLECULE
CHEMBL4161385
 28 32 0 0 0
SMALL
GASTEIGER

@<TRIPOS>ATOM
      1 N          -5.1083   57.3727   77.1056 N.pl3   1  UNL1       -0.2988
      2 C          -5.7965   58.4484   76.6782 C.3     1  UNL1        0.1177
      3 C          -5.2776   59.2714   75.6870 C.2     1  UNL1       -0.0050
      4 C          -4.0357   58.9710   75.1348 C.2     1  UNL1       -0.0040
      5 C          -3.3177   57.8687   75.5920 C.2     1  UNL1        0.0147
      6 C          -3.8958   57.0752   76.5791 C.2     1  UNL1        0.0593
      7 C          -5.6865   56.4809   78.1374 C.3     1  UNL1        0.1188
      8 CL         -3.3551   57.2033   80.0817 Cl      1  UNL1       -0.0825
      9 C          -3.6873   55.6215   79.4707 C.ar    1  UNL1        0.0553
     10 C          -2.8599   54.5816   79.9128 C.ar    1  UNL1        0.0111
     11 C          -3.0724   53.2782   79.4714 C.ar    1  UNL1        0.0008
     12 C          -4.1071   53.0141   78.5828 C.ar    1  UNL1       -0.0002
     13 C          -4.9306   54.0504   78.1358 C.ar    1  UNL1       -0.0018
     14 C          -4.7363   55.3792   78.5640 C.ar    1  UNL1        0.0082
     15 C          -1.9292   57.5550   75.0870 C.3     1  UNL1        0.1336
     16 N          -1.1920   56.7653   76.0732 N.ar    1  UNL1       -0.3267
     17 C          -0.4169   57.2687   77.0940 C.ar    1  UNL1        0.0334
     18 C           0.1554   56.2061   77.7659 C.ar    1  UNL1       -0.0091
     19 C          -0.3174   55.0090   77.1672 C.ar    1  UNL1        0.0129
     20 C          -0.1063   53.6402   77.4313 C.ar    1  UNL1        0.0012
     21 C          -0.7298   52.6756   76.6349 C.ar    1  UNL1        0.0001
     22 C          -1.5542   53.0573   75.5833 C.ar    1  UNL1        0.0015
     23 C          -1.7822   54.4080   75.3029 C.ar    1  UNL1        0.0172
     24 C          -1.1561   55.3764   76.1086 C.ar    1  UNL1        0.0596
     25 C           1.0709   56.3819   78.9321 C.3     1  UNL1        0.0275
     26 C           1.5914   57.8269   79.0179 C.3     1  UNL1        0.0051
     27 C           0.4629   58.8496   78.8093 C.3     1  UNL1        0.0066
     28 C          -0.1907   58.7108   77.4235 C.3     1  UNL1        0.0435
@<TRIPOS>BOND
     1     8     9    1
     2     9    10   ar
     3     9    14   ar
     4    10    11   ar
     5    11    12   ar
     6    12    13   ar
     7    13    14   ar
     8    14     7    1
     9     7     1    1
    10     1     2    1
    11     1     6    1
    12     2     3    1
    13     3     4    2
    14     4     5    1
    15     5    15    1
    16     5     6    2
    17    15    16    1
    18    16    17   ar
    19    16    24   ar
    20    17    18   ar
    21    17    28    1
    22    18    19   ar
    23    18    25    1
    24    19    20   ar
    25    19    24   ar
    26    20    21   ar
    27    21    22   ar
    28    22    23   ar
    29    23    24   ar
    30    25    26    1
    31    26    27    1
    32    27    28    1
#	Name:			CHEMBL4161962
#	Creating user name:	trannguyen
#	Creation time:		Tue Feb  8 17:54:08 2022


#	Modifying user name:	trannguyen
#	Modification time:	Tue Feb  8 17:54:08 2022

@<TRIPOS>MOLECULE
CHEMBL4161962
 28 32 0 0 0
SMALL
GASTEIGER

@<TRIPOS>ATOM
      1 N           3.2985   70.0586   68.4055 N.pl3   1  UNL1       -0.2986
      2 C           3.7499   69.8653   67.1579 C.3     1  UNL1        0.1175
      3 C           3.0799   68.9320   66.4595 C.2     1  UNL1       -0.0071
      4 C           2.1690   68.0046   66.7749 C.2     1  UNL1       -0.0010
      5 C           1.7480   68.2035   68.0774 C.2     1  UNL1        0.0131
      6 C           2.3302   69.2418   68.8732 C.2     1  UNL1        0.0616
      7 C           3.8071   71.2362   69.1163 C.3     1  UNL1        0.1180
      8 CL          7.8446   69.5076   71.9530 Cl      1  UNL1       -0.0823
      9 C           7.1995   70.3723   70.6122 C.ar    1  UNL1        0.0574
     10 C           8.0541   70.8961   69.6480 C.ar    1  UNL1        0.0114
     11 C           7.5280   71.5853   68.5575 C.ar    1  UNL1        0.0006
     12 C           6.1504   71.7116   68.4079 C.ar    1  UNL1       -0.0026
     13 C           5.2830   71.1454   69.3450 C.ar    1  UNL1       -0.0016
     14 C           5.8168   70.5088   70.4799 C.ar    1  UNL1        0.0088
     15 C           1.6660   67.0356   65.7056 C.3     1  UNL1        0.1322
     16 N           2.5852   66.4885   64.5940 N.ar    1  UNL1       -0.3268
     17 C           3.3241   65.2969   64.4271 C.ar    1  UNL1        0.0334
     18 C           4.1383   65.4075   63.3241 C.ar    1  UNL1       -0.0091
     19 C           3.8439   66.6305   62.6898 C.ar    1  UNL1        0.0129
     20 C           4.3320   67.2135   61.5033 C.ar    1  UNL1        0.0012
     21 C           3.8252   68.4324   61.0644 C.ar    1  UNL1        0.0001
     22 C           2.8358   69.0745   61.7992 C.ar    1  UNL1        0.0015
     23 C           2.3415   68.5265   62.9996 C.ar    1  UNL1        0.0172
     24 C           2.8600   67.2885   63.4476 C.ar    1  UNL1        0.0596
     25 C           5.0751   64.3090   62.9023 C.3     1  UNL1        0.0275
     26 C           5.3590   63.2840   64.0170 C.3     1  UNL1        0.0051
     27 C           4.0626   62.8365   64.6587 C.3     1  UNL1        0.0066
     28 C           3.4302   64.0455   65.2578 C.3     1  UNL1        0.0435
@<TRIPOS>BOND
     1     8     9    1
     2     9    10   ar
     3     9    14   ar
     4    10    11   ar
     5    11    12   ar
     6    12    13   ar
     7    13     7    1
     8    13    14   ar
     9     7     1    1
    10     1     2    1
    11     1     6    1
    12     2     3    1
    13     3     4    2
    14     4    15    1
    15     4     5    1
    16    15    16    1
    17    16    17   ar
    18    16    24   ar
    19    17    18   ar
    20    17    28    1
    21    18    19   ar
    22    18    25    1
    23    19    20   ar
    24    19    24   ar
    25    20    21   ar
    26    21    22   ar
    27    22    23   ar
    28    23    24   ar
    29    25    26    1
    30    26    27    1
    31    27    28    1
    32     5     6    2
#	Name:			CHEMBL4162941
#	Creating user name:	trannguyen
#	Creation time:		Tue Feb  8 17:54:08 2022


#	Modifying user name:	trannguyen
#	Modification time:	Tue Feb  8 17:54:08 2022

@<TRIPOS>MOLECULE
CHEMBL4162941
 22 24 0 0 0
SMALL
GASTEIGER

@<TRIPOS>ATOM
      1 C          -8.9176   77.7685   69.7202 C.2     1  UNL1       -0.0033
      2 C          -9.0756   78.0849   71.0707 C.2     1  UNL1       -0.0073
      3 C          -9.4341   77.0912   71.9777 C.3     1  UNL1        0.1175
      4 N          -9.6467   75.8196   71.5662 N.pl3   1  UNL1       -0.2986
      5 C          -9.4766   75.4865   70.2649 C.2     1  UNL1        0.0616
      6 C          -9.1522   76.4520   69.3179 C.2     1  UNL1        0.0129
      7 C          -8.3347   78.7768   68.7519 C.3     1  UNL1        0.1272
      8 O          -8.2273   81.5673   69.5006 O.2     1  UNL1       -0.2744
      9 C          -7.2976   80.8180   69.7001 C.2     1  UNL1        0.2321
     10 C          -5.9965   81.2052   70.3611 C.3     1  UNL1        0.0953
     11 C          -5.0838   80.0214   70.0976 C.3     1  UNL1        0.0953
     12 C          -6.0038   78.9538   69.5742 C.2     1  UNL1        0.2321
     13 O          -5.6615   77.8071   69.3138 O.2     1  UNL1       -0.2744
     14 N          -7.2305   79.5022   69.3378 N.am    1  UNL1       -0.2256
     15 C          -9.9418   74.7578   72.5618 C.3     1  UNL1        0.1181
     16 C          -8.7667   74.4756   73.4849 C.ar    1  UNL1       -0.0002
     17 C          -8.8866   74.7208   74.8669 C.ar    1  UNL1       -0.0025
     18 C          -7.8086   74.5021   75.7359 C.ar    1  UNL1        0.0020
     19 C          -6.5956   74.0331   75.2393 C.ar    1  UNL1        0.0296
     20 C          -6.4828   73.7521   73.8856 C.ar    1  UNL1        0.1399
     21 F          -5.3194   73.3011   73.3998 F       1  UNL1       -0.2042
     22 C          -7.5549   73.9440   73.0146 C.ar    1  UNL1        0.0270
@<TRIPOS>BOND
     1     8     9    2
     2     9    10    1
     3     9    14   am
     4    10    11    1
     5    11    12    1
     6    12    13    2
     7    12    14   am
     8    14     7    1
     9     7     1    1
    10     1     2    2
    11     1     6    1
    12     2     3    1
    13     3     4    1
    14     4    15    1
    15     4     5    1
    16    15    16    1
    17    16    17   ar
    18    16    22   ar
    19    17    18   ar
    20    18    19   ar
    21    19    20   ar
    22    20    21    1
    23    20    22   ar
    24     5     6    2
#	Name:			CHEMBL4165332
#	Creating user name:	trannguyen
#	Creation time:		Tue Feb  8 17:54:08 2022


#	Modifying user name:	trannguyen
#	Modification time:	Tue Feb  8 17:54:08 2022

@<TRIPOS>MOLECULE
CHEMBL4165332
 28 32 0 0 0
SMALL
GASTEIGER

@<TRIPOS>ATOM
      1 N           3.0055   69.8755   68.5041 N.pl3   1  UNL1       -0.2986
      2 C           3.3716   70.0089   67.2114 C.3     1  UNL1        0.1175
      3 C           2.9698   69.0799   66.2616 C.2     1  UNL1       -0.0071
      4 C           2.1685   67.9928   66.6215 C.2     1  UNL1       -0.0010
      5 C           1.7549   67.9176   67.9555 C.2     1  UNL1        0.0131
      6 C           2.1951   68.8653   68.8810 C.2     1  UNL1        0.0616
      7 C           3.4971   70.8557   69.5026 C.3     1  UNL1        0.1180
      8 C           9.3225   70.9377   69.6836 C.3     1  UNL1        0.0310
      9 C           7.8250   70.8650   69.6234 C.ar    1  UNL1       -0.0219
     10 C           7.1395   71.3664   68.5130 C.ar    1  UNL1       -0.0045
     11 C           5.7449   71.3420   68.4727 C.ar    1  UNL1       -0.0029
     12 C           5.0081   70.8238   69.5473 C.ar    1  UNL1       -0.0024
     13 C           5.6965   70.3230   70.6616 C.ar    1  UNL1       -0.0029
     14 C           7.0935   70.3488   70.6989 C.ar    1  UNL1       -0.0045
     15 C           1.6795   66.9584   65.6238 C.3     1  UNL1        0.1322
     16 N           2.7029   66.5735   64.6507 N.ar    1  UNL1       -0.3268
     17 C           3.0764   67.2979   63.5436 C.ar    1  UNL1        0.0334
     18 C           3.9704   66.5374   62.8139 C.ar    1  UNL1       -0.0091
     19 C           4.1744   65.3176   63.5123 C.ar    1  UNL1        0.0129
     20 C           4.9461   64.1657   63.2594 C.ar    1  UNL1        0.0012
     21 C           4.9072   63.0953   64.1583 C.ar    1  UNL1        0.0001
     22 C           4.1242   63.1643   65.3054 C.ar    1  UNL1        0.0015
     23 C           3.3626   64.3014   65.5880 C.ar    1  UNL1        0.0172
     24 C           3.3955   65.3694   64.6729 C.ar    1  UNL1        0.0596
     25 C           4.5747   67.0042   61.5309 C.3     1  UNL1        0.0275
     26 C           3.7966   68.1979   60.9502 C.3     1  UNL1        0.0051
     27 C           3.4527   69.2366   62.0311 C.3     1  UNL1        0.0066
     28 C           2.5679   68.6452   63.1452 C.3     1  UNL1        0.0435
@<TRIPOS>BOND
     1     8     9    1
     2     9    10   ar
     3     9    14   ar
     4    10    11   ar
     5    11    12   ar
     6    12     7    1
     7    12    13   ar
     8     7     1    1
     9     1     2    1
    10     1     6    1
    11     2     3    1
    12     3     4    2
    13     4    15    1
    14     4     5    1
    15    15    16    1
    16    16    17   ar
    17    16    24   ar
    18    17    18   ar
    19    17    28    1
    20    18    19   ar
    21    18    25    1
    22    19    20   ar
    23    19    24   ar
    24    20    21   ar
    25    21    22   ar
    26    22    23   ar
    27    23    24   ar
    28    25    26    1
    29    26    27    1
    30    27    28    1
    31     5     6    2
    32    13    14   ar
#	Name:			CHEMBL4166704
#	Creating user name:	trannguyen
#	Creation time:		Tue Feb  8 17:54:08 2022


#	Modifying user name:	trannguyen
#	Modification time:	Tue Feb  8 17:54:08 2022

@<TRIPOS>MOLECULE
CHEMBL4166704
 28 32 0 0 0
SMALL
GASTEIGER

@<TRIPOS>ATOM
      1 N           3.3286   69.9215   68.1374 N.pl3   1  UNL1       -0.2986
      2 C           3.7713   69.8470   66.8628 C.3     1  UNL1        0.1175
      3 C           3.2416   68.9105   65.9813 C.2     1  UNL1       -0.0071
      4 C           2.2406   68.0375   66.4088 C.2     1  UNL1       -0.0010
      5 C           1.7777   68.1579   67.7215 C.2     1  UNL1        0.0131
      6 C           2.3286   69.1195   68.5636 C.2     1  UNL1        0.0616
      7 C           3.8100   71.0180   69.0102 C.3     1  UNL1        0.1180
      8 C           7.8079   69.8765   71.9504 C.3     1  UNL1        0.0310
      9 C           7.2353   70.4286   70.6763 C.ar    1  UNL1       -0.0221
     10 C           8.0727   71.0783   69.7643 C.ar    1  UNL1       -0.0043
     11 C           7.5441   71.6589   68.6154 C.ar    1  UNL1       -0.0006
     12 C           6.1697   71.6069   68.3741 C.ar    1  UNL1       -0.0026
     13 C           5.3047   70.9556   69.2694 C.ar    1  UNL1       -0.0027
     14 C           5.8555   70.3706   70.4231 C.ar    1  UNL1       -0.0069
     15 C           1.6137   67.0385   65.4646 C.3     1  UNL1        0.1322
     16 N           2.5274   66.6106   64.4057 N.ar    1  UNL1       -0.3268
     17 C           3.2615   65.4490   64.3996 C.ar    1  UNL1        0.0334
     18 C           4.1062   65.4759   63.3096 C.ar    1  UNL1       -0.0091
     19 C           3.8378   66.6673   62.5832 C.ar    1  UNL1        0.0129
     20 C           4.3529   67.2173   61.3926 C.ar    1  UNL1        0.0012
     21 C           3.8471   68.4287   60.9152 C.ar    1  UNL1        0.0001
     22 C           2.8432   69.0952   61.6075 C.ar    1  UNL1        0.0015
     23 C           2.3292   68.5791   62.8006 C.ar    1  UNL1        0.0172
     24 C           2.8378   67.3578   63.2762 C.ar    1  UNL1        0.0596
     25 C           5.0668   64.3771   62.9902 C.3     1  UNL1        0.0275
     26 C           5.2441   63.4244   64.1882 C.3     1  UNL1        0.0051
     27 C           3.9026   63.0926   64.8633 C.3     1  UNL1        0.0066
     28 C           3.2067   64.3513   65.4144 C.3     1  UNL1        0.0435
@<TRIPOS>BOND
     1     8     9    1
     2     9    10   ar
     3     9    14   ar
     4    10    11   ar
     5    11    12   ar
     6    12    13   ar
     7    13     7    1
     8    13    14   ar
     9     7     1    1
    10     1     2    1
    11     1     6    1
    12     2     3    1
    13     3     4    2
    14     4    15    1
    15     4     5    1
    16    15    16    1
    17    16    17   ar
    18    16    24   ar
    19    17    18   ar
    20    17    28    1
    21    18    19   ar
    22    18    25    1
    23    19    20   ar
    24    19    24   ar
    25    20    21   ar
    26    21    22   ar
    27    22    23   ar
    28    23    24   ar
    29    25    26    1
    30    26    27    1
    31    27    28    1
    32     5     6    2
#	Name:			CHEMBL4167804
#	Creating user name:	trannguyen
#	Creation time:		Tue Feb  8 17:54:08 2022


#	Modifying user name:	trannguyen
#	Modification time:	Tue Feb  8 17:54:08 2022

@<TRIPOS>MOLECULE
CHEMBL4167804
 28 32 0 0 0
SMALL
GASTEIGER

@<TRIPOS>ATOM
      1 N           4.5517   67.0841   62.4111 N.pl3   1  UNL1       -0.2988
      2 C           4.1802   67.9058   61.4137 C.3     1  UNL1        0.1177
      3 C           4.3215   69.2848   61.5288 C.2     1  UNL1       -0.0050
      4 C           4.9611   69.8071   62.6479 C.2     1  UNL1       -0.0040
      5 C           5.4776   68.9464   63.6163 C.2     1  UNL1        0.0147
      6 C           5.2103   67.5744   63.4964 C.2     1  UNL1        0.0593
      7 C           4.4521   65.6115   62.2212 C.3     1  UNL1        0.1180
      8 F           3.5717   63.0661   67.2119 F       1  UNL1       -0.2042
      9 C           3.7565   63.6282   66.0099 C.ar    1  UNL1        0.1401
     10 C           4.6278   63.0410   65.1004 C.ar    1  UNL1        0.0294
     11 C           4.8349   63.6303   63.8431 C.ar    1  UNL1       -0.0003
     12 C           4.1740   64.8212   63.4943 C.ar    1  UNL1       -0.0023
     13 C           3.3014   65.3953   64.4439 C.ar    1  UNL1       -0.0003
     14 C           3.0849   64.7970   65.6893 C.ar    1  UNL1        0.0294
     15 C           6.3149   69.5270   64.7388 C.3     1  UNL1        0.1336
     16 N           5.5502   69.7555   65.9617 N.ar    1  UNL1       -0.3267
     17 C           6.0471   70.2200   67.1553 C.ar    1  UNL1        0.0334
     18 C           5.0303   70.1745   68.0896 C.ar    1  UNL1       -0.0091
     19 C           3.8590   69.7116   67.4317 C.ar    1  UNL1        0.0129
     20 C           2.5382   69.4630   67.8525 C.ar    1  UNL1        0.0012
     21 C           1.5956   68.9954   66.9315 C.ar    1  UNL1        0.0001
     22 C           1.9492   68.7805   65.6037 C.ar    1  UNL1        0.0015
     23 C           3.2504   69.0254   65.1593 C.ar    1  UNL1        0.0172
     24 C           4.1956   69.4859   66.0933 C.ar    1  UNL1        0.0596
     25 C           5.2139   70.5845   69.5156 C.3     1  UNL1        0.0275
     26 C           6.7003   70.7438   69.8801 C.3     1  UNL1        0.0051
     27 C           7.4996   71.4360   68.7645 C.3     1  UNL1        0.0066
     28 C           7.4534   70.6400   67.4454 C.3     1  UNL1        0.0435
@<TRIPOS>BOND
     1     8     9    1
     2     9    10   ar
     3     9    14   ar
     4    10    11   ar
     5    11    12   ar
     6    12     7    1
     7    12    13   ar
     8     7     1    1
     9     1     2    1
    10     1     6    1
    11     2     3    1
    12     3     4    2
    13     4     5    1
    14     5    15    1
    15     5     6    2
    16    15    16    1
    17    16    17   ar
    18    16    24   ar
    19    17    18   ar
    20    17    28    1
    21    18    19   ar
    22    18    25    1
    23    19    20   ar
    24    19    24   ar
    25    20    21   ar
    26    21    22   ar
    27    22    23   ar
    28    23    24   ar
    29    25    26    1
    30    26    27    1
    31    27    28    1
    32    13    14   ar
#	Name:			CHEMBL4168234
#	Creating user name:	trannguyen
#	Creation time:		Tue Feb  8 17:54:08 2022


#	Modifying user name:	trannguyen
#	Modification time:	Tue Feb  8 17:54:08 2022

@<TRIPOS>MOLECULE
CHEMBL4168234
 28 32 0 0 0
SMALL
GASTEIGER

@<TRIPOS>ATOM
      1 N           4.6927   66.9347   62.3178 N.pl3   1  UNL1       -0.2988
      2 C           4.0392   67.6876   61.4072 C.3     1  UNL1        0.1177
      3 C           4.1227   69.0678   61.4494 C.2     1  UNL1       -0.0050
      4 C           4.8842   69.6752   62.4528 C.2     1  UNL1       -0.0040
      5 C           5.5603   68.9001   63.3871 C.2     1  UNL1        0.0147
      6 C           5.4459   67.5151   63.2848 C.2     1  UNL1        0.0593
      7 C           4.5596   65.4554   62.3006 C.3     1  UNL1        0.1181
      8 F           2.1581   65.8458   66.5369 F       1  UNL1       -0.2042
      9 C           2.9579   65.1295   65.7411 C.ar    1  UNL1        0.1399
     10 C           3.4331   63.9003   66.1716 C.ar    1  UNL1        0.0296
     11 C           4.2682   63.1600   65.3399 C.ar    1  UNL1        0.0020
     12 C           4.6383   63.6591   64.0852 C.ar    1  UNL1       -0.0025
     13 C           4.1731   64.9137   63.6543 C.ar    1  UNL1       -0.0002
     14 C           3.3113   65.6314   64.4928 C.ar    1  UNL1        0.0270
     15 C           6.3181   69.4939   64.5510 C.3     1  UNL1        0.1336
     16 N           5.4877   69.7128   65.7301 N.ar    1  UNL1       -0.3267
     17 C           5.9319   70.2145   66.9283 C.ar    1  UNL1        0.0334
     18 C           4.8981   70.1234   67.8381 C.ar    1  UNL1       -0.0091
     19 C           3.7583   69.6327   67.1501 C.ar    1  UNL1        0.0129
     20 C           2.4313   69.3668   67.5385 C.ar    1  UNL1        0.0012
     21 C           1.4986   68.9615   66.5810 C.ar    1  UNL1        0.0001
     22 C           1.8728   68.8167   65.2491 C.ar    1  UNL1        0.0015
     23 C           3.1951   69.0309   64.8449 C.ar    1  UNL1        0.0172
     24 C           4.1308   69.4311   65.8166 C.ar    1  UNL1        0.0596
     25 C           5.0267   70.5560   69.2584 C.3     1  UNL1        0.0275
     26 C           6.4976   70.7760   69.6506 C.3     1  UNL1        0.0051
     27 C           7.2827   71.5150   68.5529 C.3     1  UNL1        0.0066
     28 C           7.3052   70.7249   67.2291 C.3     1  UNL1        0.0435
@<TRIPOS>BOND
     1     8     9    1
     2     9    10   ar
     3     9    14   ar
     4    10    11   ar
     5    11    12   ar
     6    12    13   ar
     7    13     7    1
     8    13    14   ar
     9     7     1    1
    10     1     2    1
    11     1     6    1
    12     2     3    1
    13     3     4    2
    14     4     5    1
    15     5    15    1
    16     5     6    2
    17    15    16    1
    18    16    17   ar
    19    16    24   ar
    20    17    18   ar
    21    17    28    1
    22    18    19   ar
    23    18    25    1
    24    19    20   ar
    25    19    24   ar
    26    20    21   ar
    27    21    22   ar
    28    22    23   ar
    29    23    24   ar
    30    25    26    1
    31    26    27    1
    32    27    28    1
#	Name:			CHEMBL4169308
#	Creating user name:	trannguyen
#	Creation time:		Tue Feb  8 17:54:08 2022


#	Modifying user name:	trannguyen
#	Modification time:	Tue Feb  8 17:54:08 2022

@<TRIPOS>MOLECULE
CHEMBL4169308
 27 31 0 0 0
SMALL
GASTEIGER

@<TRIPOS>ATOM
      1 C          -1.7024   56.7401   75.2603 C.3     1  UNL1        0.1322
      2 N          -0.6919   56.5523   76.3082 N.ar    1  UNL1       -0.3268
      3 C          -0.3252   55.3554   76.8823 C.ar    1  UNL1        0.0334
      4 C           0.6578   55.6095   77.8194 C.ar    1  UNL1       -0.0091
      5 C           0.8919   57.0090   77.8345 C.ar    1  UNL1        0.0129
      6 C           1.7577   57.8410   78.5720 C.ar    1  UNL1        0.0012
      7 C           1.7409   59.2210   78.3550 C.ar    1  UNL1        0.0001
      8 C           0.8753   59.7768   77.4189 C.ar    1  UNL1        0.0015
      9 C           0.0096   58.9725   76.6701 C.ar    1  UNL1        0.0172
     10 C           0.0370   57.5841   76.8879 C.ar    1  UNL1        0.0596
     11 C           1.3214   54.5355   78.6164 C.3     1  UNL1        0.0275
     12 C           0.5127   53.2290   78.5804 C.3     1  UNL1        0.0051
     13 C           0.0116   52.9038   77.1631 C.3     1  UNL1        0.0066
     14 C          -0.9052   54.0059   76.5941 C.3     1  UNL1        0.0435
     15 N          -5.4832   58.4631   76.3958 N.pl3   1  UNL1       -0.2986
     16 C          -4.6771   59.1046   75.5056 C.3     1  UNL1        0.1175
     17 C          -3.4278   58.5730   75.1745 C.2     1  UNL1       -0.0071
     18 C          -2.9941   57.3741   75.7387 C.2     1  UNL1       -0.0010
     19 C          -3.8286   56.7744   76.6887 C.2     1  UNL1        0.0131
     20 C          -5.0649   57.3329   76.9813 C.2     1  UNL1        0.0616
     21 C          -6.8897   58.9143   76.5680 C.3     1  UNL1        0.1180
     22 C          -7.2218   63.1665   77.3256 C.ar    1  UNL1       -0.0000
     23 C          -7.6845   62.6353   76.1251 C.ar    1  UNL1       -0.0003
     24 C          -7.5564   61.2676   75.8708 C.ar    1  UNL1       -0.0026
     25 C          -6.9861   60.4068   76.8259 C.ar    1  UNL1       -0.0024
     26 C          -6.5190   60.9586   78.0289 C.ar    1  UNL1       -0.0026
     27 C          -6.6313   62.3317   78.2715 C.ar    1  UNL1       -0.0003
@<TRIPOS>BOND
     1    22    23   ar
     2    22    27   ar
     3    23    24   ar
     4    24    25   ar
     5    25    21    1
     6    25    26   ar
     7    21    15    1
     8    15    16    1
     9    15    20    1
    10    16    17    1
    11    17    18    2
    12    18     1    1
    13    18    19    1
    14     1     2    1
    15     2     3   ar
    16     2    10   ar
    17     3     4   ar
    18     3    14    1
    19     4     5   ar
    20     4    11    1
    21     5     6   ar
    22     5    10   ar
    23     6     7   ar
    24     7     8   ar
    25     8     9   ar
    26     9    10   ar
    27    11    12    1
    28    12    13    1
    29    13    14    1
    30    19    20    2
    31    26    27   ar
#	Name:			CHEMBL4169820
#	Creating user name:	trannguyen
#	Creation time:		Tue Feb  8 17:54:08 2022


#	Modifying user name:	trannguyen
#	Modification time:	Tue Feb  8 17:54:08 2022

@<TRIPOS>MOLECULE
CHEMBL4169820
 28 32 0 0 0
SMALL
GASTEIGER

@<TRIPOS>ATOM
      1 N          -5.3180   57.6761   77.3307 N.pl3   1  UNL1       -0.2988
      2 C          -6.1078   58.6224   76.7787 C.3     1  UNL1        0.1177
      3 C          -5.6822   59.3461   75.6724 C.2     1  UNL1       -0.0050
      4 C          -4.4306   59.0846   75.1313 C.2     1  UNL1       -0.0040
      5 C          -3.6110   58.1121   75.7118 C.2     1  UNL1        0.0147
      6 C          -4.0730   57.4419   76.8479 C.2     1  UNL1        0.0593
      7 C          -5.8214   56.8681   78.4730 C.3     1  UNL1        0.1180
      8 C          -4.4457   52.0107   78.0461 C.3     1  UNL1        0.0310
      9 C          -4.2099   53.3984   78.5639 C.ar    1  UNL1       -0.0221
     10 C          -3.0582   53.6646   79.3143 C.ar    1  UNL1       -0.0043
     11 C          -2.8157   54.9438   79.8006 C.ar    1  UNL1       -0.0006
     12 C          -3.7213   55.9662   79.5395 C.ar    1  UNL1       -0.0026
     13 C          -4.8757   55.7329   78.7779 C.ar    1  UNL1       -0.0027
     14 C          -5.1065   54.4401   78.2821 C.ar    1  UNL1       -0.0069
     15 C          -2.2481   57.8093   75.1343 C.3     1  UNL1        0.1336
     16 N          -1.4024   57.0378   76.0459 N.ar    1  UNL1       -0.3267
     17 C          -0.4892   57.5705   76.9231 C.ar    1  UNL1        0.0334
     18 C           0.2433   56.5338   77.4730 C.ar    1  UNL1       -0.0091
     19 C          -0.3199   55.3198   76.9992 C.ar    1  UNL1        0.0129
     20 C          -0.0403   53.9622   77.2526 C.ar    1  UNL1        0.0012
     21 C          -0.8025   52.9694   76.6322 C.ar    1  UNL1        0.0001
     22 C          -1.8133   53.3140   75.7417 C.ar    1  UNL1        0.0015
     23 C          -2.0914   54.6548   75.4519 C.ar    1  UNL1        0.0172
     24 C          -1.3463   55.6505   76.1052 C.ar    1  UNL1        0.0596
     25 C           1.3645   56.7420   78.4284 C.3     1  UNL1        0.0275
     26 C           1.7849   58.2208   78.4947 C.3     1  UNL1        0.0051
     27 C           0.5709   59.1644   78.5008 C.3     1  UNL1        0.0066
     28 C          -0.2709   59.0193   77.2202 C.3     1  UNL1        0.0435
@<TRIPOS>BOND
     1     8     9    1
     2     9    10   ar
     3     9    14   ar
     4    10    11   ar
     5    11    12   ar
     6    12    13   ar
     7    13     7    1
     8    13    14   ar
     9     7     1    1
    10     1     2    1
    11     1     6    1
    12     2     3    1
    13     3     4    2
    14     4     5    1
    15     5    15    1
    16     5     6    2
    17    15    16    1
    18    16    17   ar
    19    16    24   ar
    20    17    18   ar
    21    17    28    1
    22    18    19   ar
    23    18    25    1
    24    19    20   ar
    25    19    24   ar
    26    20    21   ar
    27    21    22   ar
    28    22    23   ar
    29    23    24   ar
    30    25    26    1
    31    26    27    1
    32    27    28    1
#	Name:			CHEMBL4169890
#	Creating user name:	trannguyen
#	Creation time:		Tue Feb  8 17:54:08 2022


#	Modifying user name:	trannguyen
#	Modification time:	Tue Feb  8 17:54:08 2022

@<TRIPOS>MOLECULE
CHEMBL4169890
 28 32 0 0 0
SMALL
GASTEIGER

@<TRIPOS>ATOM
      1 N           3.1896   69.9552   68.3271 N.pl3   1  UNL1       -0.2986
      2 C           3.6120   69.9356   67.0378 C.3     1  UNL1        0.1175
      3 C           3.1283   68.9718   66.1525 C.2     1  UNL1       -0.0071
      4 C           2.1808   68.0370   66.5664 C.2     1  UNL1       -0.0010
      5 C           1.7795   68.0795   67.9029 C.2     1  UNL1        0.0131
      6 C           2.2821   69.0584   68.7473 C.2     1  UNL1        0.0616
      7 C           3.6470   71.0295   69.2420 C.3     1  UNL1        0.1180
      8 CL          9.6577   70.6918   69.8816 Cl      1  UNL1       -0.0822
      9 C           7.9506   70.8141   69.7137 C.ar    1  UNL1        0.0577
     10 C           7.4027   71.4243   68.5883 C.ar    1  UNL1        0.0111
     11 C           6.0120   71.5064   68.4398 C.ar    1  UNL1       -0.0017
     12 C           5.1565   70.9892   69.4259 C.ar    1  UNL1       -0.0024
     13 C           5.7315   70.4011   70.5686 C.ar    1  UNL1       -0.0017
     14 C           7.1199   70.3013   70.7048 C.ar    1  UNL1        0.0111
     15 C           1.6471   67.0204   65.5802 C.3     1  UNL1        0.1322
     16 N           2.6296   66.6005   64.5818 N.ar    1  UNL1       -0.3268
     17 C           2.9901   67.3105   63.4628 C.ar    1  UNL1        0.0334
     18 C           3.9363   66.5780   62.7728 C.ar    1  UNL1       -0.0091
     19 C           4.1521   65.3680   63.4854 C.ar    1  UNL1        0.0129
     20 C           4.9683   64.2394   63.2693 C.ar    1  UNL1        0.0012
     21 C           4.9219   63.1683   64.1674 C.ar    1  UNL1        0.0001
     22 C           4.0847   63.2125   65.2770 C.ar    1  UNL1        0.0015
     23 C           3.2820   64.3289   65.5265 C.ar    1  UNL1        0.0172
     24 C           3.3282   65.4003   64.6157 C.ar    1  UNL1        0.0596
     25 C           4.5658   67.0618   61.5082 C.3     1  UNL1        0.0275
     26 C           3.7475   68.2032   60.8794 C.3     1  UNL1        0.0051
     27 C           3.3124   69.2414   61.9274 C.3     1  UNL1        0.0066
     28 C           2.4233   68.6243   63.0233 C.3     1  UNL1        0.0435
@<TRIPOS>BOND
     1     8     9    1
     2     9    10   ar
     3     9    14   ar
     4    10    11   ar
     5    11    12   ar
     6    12     7    1
     7    12    13   ar
     8     7     1    1
     9     1     2    1
    10     1     6    1
    11     2     3    1
    12     3     4    2
    13     4    15    1
    14     4     5    1
    15    15    16    1
    16    16    17   ar
    17    16    24   ar
    18    17    18   ar
    19    17    28    1
    20    18    19   ar
    21    18    25    1
    22    19    20   ar
    23    19    24   ar
    24    20    21   ar
    25    21    22   ar
    26    22    23   ar
    27    23    24   ar
    28    25    26    1
    29    26    27    1
    30    27    28    1
    31     5     6    2
    32    13    14   ar
#	Name:			CHEMBL4171576
#	Creating user name:	trannguyen
#	Creation time:		Tue Feb  8 17:54:08 2022


#	Modifying user name:	trannguyen
#	Modification time:	Tue Feb  8 17:54:08 2022

@<TRIPOS>MOLECULE
CHEMBL4171576
 28 32 0 0 0
SMALL
GASTEIGER

@<TRIPOS>ATOM
      1 N           0.7720   58.6559   76.8268 N.pl3   1  UNL1       -0.2988
      2 C           1.4450   57.8297   77.6451 C.3     1  UNL1        0.1177
      3 C           1.0720   56.4929   77.7770 C.2     1  UNL1       -0.0050
      4 C          -0.0240   56.0120   77.0570 C.2     1  UNL1       -0.0040
      5 C          -0.7280   56.8692   76.2213 C.2     1  UNL1        0.0147
      6 C          -0.3102   58.1962   76.1393 C.2     1  UNL1        0.0593
      7 C           1.2895   60.0382   76.5972 C.3     1  UNL1        0.1180
      8 CL         -1.8150   64.2965   79.5431 Cl      1  UNL1       -0.0822
      9 C          -0.8794   63.1269   78.6975 C.ar    1  UNL1        0.0577
     10 C          -0.0108   62.2942   79.3942 C.ar    1  UNL1        0.0111
     11 C           0.7000   61.3044   78.7105 C.ar    1  UNL1       -0.0017
     12 C           0.5469   61.1356   77.3265 C.ar    1  UNL1       -0.0024
     13 C          -0.3280   61.9933   76.6357 C.ar    1  UNL1       -0.0017
     14 C          -1.0303   62.9871   77.3191 C.ar    1  UNL1        0.0111
     15 C          -1.9536   56.3756   75.4784 C.3     1  UNL1        0.1336
     16 N          -3.1961   56.5650   76.2262 N.ar    1  UNL1       -0.3267
     17 C          -4.0566   57.6304   76.0884 C.ar    1  UNL1        0.0334
     18 C          -5.0866   57.4709   76.9936 C.ar    1  UNL1       -0.0091
     19 C          -4.8769   56.2433   77.6754 C.ar    1  UNL1        0.0129
     20 C          -5.5964   55.5534   78.6719 C.ar    1  UNL1        0.0012
     21 C          -5.1459   54.3061   79.1107 C.ar    1  UNL1        0.0001
     22 C          -3.9853   53.7512   78.5828 C.ar    1  UNL1        0.0015
     23 C          -3.2355   54.4294   77.6140 C.ar    1  UNL1        0.0172
     24 C          -3.7023   55.6780   77.1658 C.ar    1  UNL1        0.0596
     25 C          -6.2207   58.4344   77.1225 C.3     1  UNL1        0.0275
     26 C          -5.9512   59.7420   76.3564 C.3     1  UNL1        0.0051
     27 C          -5.2741   59.4953   75.0039 C.3     1  UNL1        0.0066
     28 C          -3.9237   58.7761   75.1348 C.3     1  UNL1        0.0435
@<TRIPOS>BOND
     1     8     9    1
     2     9    10   ar
     3     9    14   ar
     4    10    11   ar
     5    11    12   ar
     6    12     7    1
     7    12    13   ar
     8     7     1    1
     9     1     2    1
    10     1     6    1
    11     2     3    1
    12     3     4    2
    13     4     5    1
    14     5    15    1
    15     5     6    2
    16    15    16    1
    17    16    17   ar
    18    16    24   ar
    19    17    18   ar
    20    17    28    1
    21    18    19   ar
    22    18    25    1
    23    19    20   ar
    24    19    24   ar
    25    20    21   ar
    26    21    22   ar
    27    22    23   ar
    28    23    24   ar
    29    25    26    1
    30    26    27    1
    31    27    28    1
    32    13    14   ar
#	Name:			CHEMBL4172701
#	Creating user name:	trannguyen
#	Creation time:		Tue Feb  8 17:54:08 2022


#	Modifying user name:	trannguyen
#	Modification time:	Tue Feb  8 17:54:08 2022

@<TRIPOS>MOLECULE
CHEMBL4172701
 28 32 0 0 0
SMALL
GASTEIGER

@<TRIPOS>ATOM
      1 N           3.3938   70.0273   68.2040 N.pl3   1  UNL1       -0.2986
      2 C           3.8168   69.8614   66.9415 C.3     1  UNL1        0.1175
      3 C           3.3209   68.8899   66.0980 C.2     1  UNL1       -0.0071
      4 C           2.3158   68.0517   66.5465 C.2     1  UNL1       -0.0010
      5 C           1.8732   68.2112   67.8611 C.2     1  UNL1        0.0131
      6 C           2.4346   69.1928   68.6908 C.2     1  UNL1        0.0616
      7 C           3.9655   71.0858   69.1128 C.3     1  UNL1        0.1181
      8 F           7.7035   69.6677   71.9534 F       1  UNL1       -0.2042
      9 C           7.2773   70.3113   70.8582 C.ar    1  UNL1        0.1399
     10 C           8.2047   70.9466   70.0437 C.ar    1  UNL1        0.0296
     11 C           7.7778   71.5378   68.8629 C.ar    1  UNL1        0.0020
     12 C           6.4327   71.4523   68.5001 C.ar    1  UNL1       -0.0025
     13 C           5.4595   70.9534   69.3904 C.ar    1  UNL1       -0.0002
     14 C           5.9136   70.3366   70.5659 C.ar    1  UNL1        0.0270
     15 C           1.6937   67.1214   65.5330 C.3     1  UNL1        0.1322
     16 N           2.5964   66.6966   64.4785 N.ar    1  UNL1       -0.3268
     17 C           3.2646   65.4978   64.4423 C.ar    1  UNL1        0.0334
     18 C           4.0572   65.4971   63.3087 C.ar    1  UNL1       -0.0091
     19 C           3.7988   66.6948   62.5913 C.ar    1  UNL1        0.0129
     20 C           4.2753   67.2198   61.3768 C.ar    1  UNL1        0.0012
     21 C           3.8113   68.4595   60.9283 C.ar    1  UNL1        0.0001
     22 C           2.8859   69.1775   61.6766 C.ar    1  UNL1        0.0015
     23 C           2.3953   68.6772   62.8863 C.ar    1  UNL1        0.0172
     24 C           2.8678   67.4289   63.3308 C.ar    1  UNL1        0.0596
     25 C           4.9730   64.3709   62.9737 C.3     1  UNL1        0.0275
     26 C           5.2349   63.4853   64.2033 C.3     1  UNL1        0.0051
     27 C           3.9274   63.1442   64.9366 C.3     1  UNL1        0.0066
     28 C           3.2138   64.4050   65.4637 C.3     1  UNL1        0.0435
@<TRIPOS>BOND
     1     8     9    1
     2     9    10   ar
     3     9    14   ar
     4    10    11   ar
     5    11    12   ar
     6    12    13   ar
     7    13     7    1
     8    13    14   ar
     9     7     1    1
    10     1     2    1
    11     1     6    1
    12     2     3    1
    13     3     4    2
    14     4    15    1
    15     4     5    1
    16    15    16    1
    17    16    17   ar
    18    16    24   ar
    19    17    18   ar
    20    17    28    1
    21    18    19   ar
    22    18    25    1
    23    19    20   ar
    24    19    24   ar
    25    20    21   ar
    26    21    22   ar
    27    22    23   ar
    28    23    24   ar
    29    25    26    1
    30    26    27    1
    31    27    28    1
    32     5     6    2
#	Name:			CHEMBL4173247
#	Creating user name:	trannguyen
#	Creation time:		Tue Feb  8 17:54:08 2022


#	Modifying user name:	trannguyen
#	Modification time:	Tue Feb  8 17:54:08 2022

@<TRIPOS>MOLECULE
CHEMBL4173247
 27 31 0 0 0
SMALL
GASTEIGER

@<TRIPOS>ATOM
      1 C           1.8476   67.6954   65.4793 C.3     1  UNL1        0.1336
      2 N           3.0325   67.1931   64.7760 N.ar    1  UNL1       -0.3267
      3 C           3.9971   67.9627   64.1649 C.ar    1  UNL1        0.0334
      4 C           4.8952   67.1174   63.5424 C.ar    1  UNL1       -0.0091
      5 C           4.5191   65.7849   63.8525 C.ar    1  UNL1        0.0129
      6 C           5.0765   64.5278   63.5446 C.ar    1  UNL1        0.0012
      7 C           4.4755   63.3680   64.0395 C.ar    1  UNL1        0.0001
      8 C           3.3355   63.4487   64.8292 C.ar    1  UNL1        0.0015
      9 C           2.7570   64.6855   65.1419 C.ar    1  UNL1        0.0172
     10 C           3.3691   65.8487   64.6478 C.ar    1  UNL1        0.0596
     11 C           6.0688   67.6069   62.7604 C.3     1  UNL1        0.0275
     12 C           5.9419   69.1029   62.4347 C.3     1  UNL1        0.0051
     13 C           5.4655   69.9091   63.6539 C.3     1  UNL1        0.0066
     14 C           4.0733   69.4580   64.1446 C.3     1  UNL1        0.0435
     15 N           2.9931   69.7172   68.4532 N.pl3   1  UNL1       -0.2988
     16 C           2.5154   69.0103   69.4991 C.3     1  UNL1        0.1177
     17 C           1.8949   67.7859   69.3060 C.2     1  UNL1       -0.0050
     18 C           1.7025   67.3184   68.0126 C.2     1  UNL1       -0.0040
     19 C           2.1098   68.0894   66.9211 C.2     1  UNL1        0.0147
     20 C           2.8107   69.2734   67.1845 C.2     1  UNL1        0.0593
     21 C           3.6374   71.0342   68.6974 C.3     1  UNL1        0.1180
     22 C           7.9161   70.6304   69.1764 C.ar    1  UNL1       -0.0000
     23 C           7.0864   70.5466   70.2922 C.ar    1  UNL1       -0.0003
     24 C           5.7027   70.6731   70.1478 C.ar    1  UNL1       -0.0026
     25 C           5.1346   70.8832   68.8806 C.ar    1  UNL1       -0.0024
     26 C           5.9857   70.9627   67.7651 C.ar    1  UNL1       -0.0026
     27 C           7.3665   70.8422   67.9149 C.ar    1  UNL1       -0.0003
@<TRIPOS>BOND
     1    22    23   ar
     2    22    27   ar
     3    23    24   ar
     4    24    25   ar
     5    25    21    1
     6    25    26   ar
     7    21    15    1
     8    15    16    1
     9    15    20    1
    10    16    17    1
    11    17    18    2
    12    18    19    1
    13    19     1    1
    14    19    20    2
    15     1     2    1
    16     2     3   ar
    17     2    10   ar
    18     3     4   ar
    19     3    14    1
    20     4     5   ar
    21     4    11    1
    22     5     6   ar
    23     5    10   ar
    24     6     7   ar
    25     7     8   ar
    26     8     9   ar
    27     9    10   ar
    28    11    12    1
    29    12    13    1
    30    13    14    1
    31    26    27   ar
#	Name:			CHEMBL4174929
#	Creating user name:	trannguyen
#	Creation time:		Tue Feb  8 17:54:08 2022


#	Modifying user name:	trannguyen
#	Modification time:	Tue Feb  8 17:54:08 2022

@<TRIPOS>MOLECULE
CHEMBL4174929
 28 32 0 0 0
SMALL
GASTEIGER

@<TRIPOS>ATOM
      1 N          -2.5861   78.9997   80.3934 N.pl3   1  UNL1       -0.2986
      2 C          -3.3314   77.9262   80.7078 C.3     1  UNL1        0.1175
      3 C          -4.6772   77.8377   80.3327 C.2     1  UNL1       -0.0071
      4 C          -5.2570   78.8400   79.5470 C.2     1  UNL1       -0.0010
      5 C          -4.4309   79.9030   79.1763 C.2     1  UNL1        0.0131
      6 C          -3.1211   79.9945   79.6422 C.2     1  UNL1        0.0616
      7 C          -1.1410   79.0847   80.7553 C.3     1  UNL1        0.1177
      8 C           0.5686   79.5232   78.2542 C.3     1  UNL1        0.0308
      9 C           0.4820   78.1946   78.9614 C.ar    1  UNL1       -0.0242
     10 C           1.2674   77.1371   78.4639 C.ar    1  UNL1       -0.0045
     11 C           1.2069   75.8663   79.0307 C.ar    1  UNL1       -0.0003
     12 C           0.3471   75.6271   80.0935 C.ar    1  UNL1       -0.0003
     13 C          -0.4200   76.6688   80.6163 C.ar    1  UNL1       -0.0029
     14 C          -0.3391   77.9757   80.0931 C.ar    1  UNL1       -0.0063
     15 C          -6.7005   78.8307   79.0749 C.3     1  UNL1        0.1322
     16 N          -6.9540   78.2109   77.7689 N.ar    1  UNL1       -0.3268
     17 C          -7.3545   76.9060   77.5626 C.ar    1  UNL1        0.0334
     18 C          -7.3025   76.6470   76.2069 C.ar    1  UNL1       -0.0091
     19 C          -6.9356   77.8445   75.5486 C.ar    1  UNL1        0.0129
     20 C          -6.7701   78.1811   74.1903 C.ar    1  UNL1        0.0012
     21 C          -6.4149   79.4832   73.8400 C.ar    1  UNL1        0.0001
     22 C          -6.2048   80.4402   74.8271 C.ar    1  UNL1        0.0015
     23 C          -6.3398   80.1251   76.1875 C.ar    1  UNL1        0.0172
     24 C          -6.7209   78.8157   76.5349 C.ar    1  UNL1        0.0596
     25 C          -7.6222   75.3144   75.6165 C.3     1  UNL1        0.0275
     26 C          -7.5171   74.2126   76.6801 C.3     1  UNL1        0.0051
     27 C          -8.2767   74.6098   77.9568 C.3     1  UNL1        0.0066
     28 C          -7.7218   75.8986   78.6074 C.3     1  UNL1        0.0435
@<TRIPOS>BOND
     1     8     9    1
     2     9    10   ar
     3     9    14   ar
     4    10    11   ar
     5    11    12   ar
     6    12    13   ar
     7    13    14   ar
     8    14     7    1
     9     7     1    1
    10     1     2    1
    11     1     6    1
    12     2     3    1
    13     3     4    2
    14     4    15    1
    15     4     5    1
    16    15    16    1
    17    16    17   ar
    18    16    24   ar
    19    17    18   ar
    20    17    28    1
    21    18    19   ar
    22    18    25    1
    23    19    20   ar
    24    19    24   ar
    25    20    21   ar
    26    21    22   ar
    27    22    23   ar
    28    23    24   ar
    29    25    26    1
    30    26    27    1
    31    27    28    1
    32     5     6    2
#	Name:			CHEMBL4175199
#	Creating user name:	trannguyen
#	Creation time:		Tue Feb  8 17:54:08 2022


#	Modifying user name:	trannguyen
#	Modification time:	Tue Feb  8 17:54:08 2022

@<TRIPOS>MOLECULE
CHEMBL4175199
 28 32 0 0 0
SMALL
GASTEIGER

@<TRIPOS>ATOM
      1 N           3.1333   69.9651   68.3426 N.pl3   1  UNL1       -0.2986
      2 C           2.2882   69.0094   68.7935 C.3     1  UNL1        0.1175
      3 C           1.7996   68.0314   67.9328 C.2     1  UNL1       -0.0071
      4 C           2.1784   68.0247   66.5925 C.2     1  UNL1       -0.0010
      5 C           3.0681   69.0144   66.1634 C.2     1  UNL1        0.0131
      6 C           3.5485   69.9578   67.0614 C.2     1  UNL1        0.0616
      7 C           3.6221   71.0102   69.2713 C.3     1  UNL1        0.1180
      8 F           9.2749   70.8799   69.6210 F       1  UNL1       -0.2042
      9 C           7.9390   70.9030   69.5349 C.ar    1  UNL1        0.1401
     10 C           7.1763   70.3704   70.5658 C.ar    1  UNL1        0.0294
     11 C           5.7819   70.3915   70.4771 C.ar    1  UNL1       -0.0003
     12 C           5.1444   70.9551   69.3559 C.ar    1  UNL1       -0.0023
     13 C           5.9378   71.4861   68.3230 C.ar    1  UNL1       -0.0003
     14 C           7.3326   71.4591   68.4153 C.ar    1  UNL1        0.0294
     15 C           1.6304   66.9822   65.6471 C.3     1  UNL1        0.1322
     16 N           2.6036   66.5704   64.6432 N.ar    1  UNL1       -0.3268
     17 C           2.9671   67.3031   63.5394 C.ar    1  UNL1        0.0334
     18 C           3.9408   66.6005   62.8578 C.ar    1  UNL1       -0.0091
     19 C           4.1554   65.3770   63.5461 C.ar    1  UNL1        0.0129
     20 C           4.9850   64.2615   63.3159 C.ar    1  UNL1        0.0012
     21 C           4.9432   63.1724   64.1916 C.ar    1  UNL1        0.0001
     22 C           4.1090   63.1930   65.3031 C.ar    1  UNL1        0.0015
     23 C           3.3035   64.3023   65.5734 C.ar    1  UNL1        0.0172
     24 C           3.3216   65.3814   64.6700 C.ar    1  UNL1        0.0596
     25 C           4.5957   67.1195   61.6209 C.3     1  UNL1        0.0275
     26 C           3.7689   68.2487   60.9839 C.3     1  UNL1        0.0051
     27 C           3.2788   69.2617   62.0322 C.3     1  UNL1        0.0066
     28 C           2.3807   68.6088   63.0997 C.3     1  UNL1        0.0435
@<TRIPOS>BOND
     1     8     9    1
     2     9    10   ar
     3     9    14   ar
     4    10    11   ar
     5    11    12   ar
     6    12     7    1
     7    12    13   ar
     8     7     1    1
     9     1     2    1
    10     1     6    1
    11     2     3    1
    12     3     4    2
    13     4    15    1
    14     4     5    1
    15    15    16    1
    16    16    17   ar
    17    16    24   ar
    18    17    18   ar
    19    17    28    1
    20    18    19   ar
    21    18    25    1
    22    19    20   ar
    23    19    24   ar
    24    20    21   ar
    25    21    22   ar
    26    22    23   ar
    27    23    24   ar
    28    25    26    1
    29    26    27    1
    30    27    28    1
    31     5     6    2
    32    13    14   ar
#	Name:			CHEMBL4175629
#	Creating user name:	trannguyen
#	Creation time:		Tue Feb  8 17:54:08 2022


#	Modifying user name:	trannguyen
#	Modification time:	Tue Feb  8 17:54:08 2022

@<TRIPOS>MOLECULE
CHEMBL4175629
 28 32 0 0 0
SMALL
GASTEIGER

@<TRIPOS>ATOM
      1 N           3.4486   70.1098   68.2769 N.pl3   1  UNL1       -0.2985
      2 C           2.5280   69.2652   68.7680 C.3     1  UNL1        0.1175
      3 C           1.9710   68.2745   67.9707 C.2     1  UNL1       -0.0071
      4 C           2.3560   68.1421   66.6350 C.2     1  UNL1       -0.0010
      5 C           3.3440   69.0048   66.1619 C.2     1  UNL1        0.0131
      6 C           3.8707   69.9920   66.9937 C.2     1  UNL1        0.0616
      7 C           3.9607   71.2077   69.1290 C.3     1  UNL1        0.1202
      8 F           5.9757   72.0793   67.3650 F       1  UNL1       -0.2044
      9 C           6.3801   71.4851   68.4966 C.ar    1  UNL1        0.1377
     10 C           7.7436   71.3392   68.7310 C.ar    1  UNL1        0.0294
     11 C           8.1764   70.7078   69.8950 C.ar    1  UNL1        0.0023
     12 C           7.2418   70.2214   70.8099 C.ar    1  UNL1       -0.0001
     13 C           5.8733   70.3747   70.5695 C.ar    1  UNL1       -0.0004
     14 C           5.4281   71.0212   69.4071 C.ar    1  UNL1        0.0251
     15 C           1.6912   67.1219   65.7365 C.3     1  UNL1        0.1322
     16 N           2.5544   66.7013   64.6337 N.ar    1  UNL1       -0.3268
     17 C           3.2782   65.5301   64.5804 C.ar    1  UNL1        0.0334
     18 C           4.0135   65.5290   63.4111 C.ar    1  UNL1       -0.0091
     19 C           3.7454   66.7425   62.7282 C.ar    1  UNL1        0.0129
     20 C           4.2029   67.2908   61.5128 C.ar    1  UNL1        0.0012
     21 C           3.7579   68.5515   61.1099 C.ar    1  UNL1        0.0001
     22 C           2.8702   69.2692   61.9032 C.ar    1  UNL1        0.0015
     23 C           2.4018   68.7481   63.1152 C.ar    1  UNL1        0.0172
     24 C           2.8437   67.4727   63.5130 C.ar    1  UNL1        0.0596
     25 C           4.9055   64.3980   63.0155 C.3     1  UNL1        0.0275
     26 C           5.2492   63.5152   64.2264 C.3     1  UNL1        0.0051
     27 C           3.9970   63.1832   65.0478 C.3     1  UNL1        0.0066
     28 C           3.3233   64.4463   65.6092 C.3     1  UNL1        0.0435
@<TRIPOS>BOND
     1     8     9    1
     2     9    10   ar
     3     9    14   ar
     4    10    11   ar
     5    11    12   ar
     6    12    13   ar
     7    13    14   ar
     8    14     7    1
     9     7     1    1
    10     1     2    1
    11     1     6    1
    12     2     3    1
    13     3     4    2
    14     4    15    1
    15     4     5    1
    16    15    16    1
    17    16    17   ar
    18    16    24   ar
    19    17    18   ar
    20    17    28    1
    21    18    19   ar
    22    18    25    1
    23    19    20   ar
    24    19    24   ar
    25    20    21   ar
    26    21    22   ar
    27    22    23   ar
    28    23    24   ar
    29    25    26    1
    30    26    27    1
    31    27    28    1
    32     5     6    2
#	Name:			CHEMBL4176078
#	Creating user name:	trannguyen
#	Creation time:		Tue Feb  8 17:54:08 2022


#	Modifying user name:	trannguyen
#	Modification time:	Tue Feb  8 17:54:08 2022

@<TRIPOS>MOLECULE
CHEMBL4176078
 28 32 0 0 0
SMALL
GASTEIGER

@<TRIPOS>ATOM
      1 N          -0.8900   56.8844   76.2538 N.pl3   1  UNL1       -0.2987
      2 C          -0.3594   56.0387   77.1611 C.3     1  UNL1        0.1177
      3 C           0.7604   56.4016   77.8983 C.2     1  UNL1       -0.0050
      4 C           1.3389   57.6476   77.6847 C.2     1  UNL1       -0.0040
      5 C           0.8150   58.5080   76.7145 C.2     1  UNL1        0.0147
      6 C          -0.3146   58.0865   76.0138 C.2     1  UNL1        0.0593
      7 C          -2.0973   56.4995   75.4763 C.3     1  UNL1        0.1202
      8 F          -3.3094   58.9115   74.6980 F       1  UNL1       -0.2044
      9 C          -3.9155   58.2192   75.6709 C.ar    1  UNL1        0.1377
     10 C          -5.0976   58.7142   76.2146 C.ar    1  UNL1        0.0294
     11 C          -5.7393   58.0038   77.2253 C.ar    1  UNL1        0.0023
     12 C          -5.1880   56.8110   77.6923 C.ar    1  UNL1       -0.0001
     13 C          -4.0052   56.3183   77.1363 C.ar    1  UNL1       -0.0004
     14 C          -3.3622   57.0115   76.1042 C.ar    1  UNL1        0.0251
     15 C           1.4443   59.8460   76.4043 C.3     1  UNL1        0.1336
     16 N           1.3587   60.7484   77.5548 N.ar    1  UNL1       -0.3267
     17 C           0.2575   61.4881   77.9293 C.ar    1  UNL1        0.0334
     18 C           0.6016   62.2419   79.0354 C.ar    1  UNL1       -0.0091
     19 C           1.9377   61.9171   79.3840 C.ar    1  UNL1        0.0129
     20 C           2.7989   62.3333   80.4193 C.ar    1  UNL1        0.0012
     21 C           4.0891   61.8042   80.5032 C.ar    1  UNL1        0.0001
     22 C           4.5248   60.8640   79.5771 C.ar    1  UNL1        0.0015
     23 C           3.6868   60.4288   78.5456 C.ar    1  UNL1        0.0172
     24 C           2.3925   60.9725   78.4565 C.ar    1  UNL1        0.0596
     25 C          -0.3498   63.1724   79.7131 C.3     1  UNL1        0.0275
     26 C          -1.5381   63.5082   78.7978 C.3     1  UNL1        0.0051
     27 C          -2.1170   62.2406   78.1493 C.3     1  UNL1        0.0066
     28 C          -1.0844   61.5139   77.2645 C.3     1  UNL1        0.0435
@<TRIPOS>BOND
     1     8     9    1
     2     9    10   ar
     3     9    14   ar
     4    10    11   ar
     5    11    12   ar
     6    12    13   ar
     7    13    14   ar
     8    14     7    1
     9     7     1    1
    10     1     2    1
    11     1     6    1
    12     2     3    1
    13     3     4    2
    14     4     5    1
    15     5    15    1
    16     5     6    2
    17    15    16    1
    18    16    17   ar
    19    16    24   ar
    20    17    18   ar
    21    17    28    1
    22    18    19   ar
    23    18    25    1
    24    19    20   ar
    25    19    24   ar
    26    20    21   ar
    27    21    22   ar
    28    22    23   ar
    29    23    24   ar
    30    25    26    1
    31    26    27    1
    32    27    28    1
#	Name:			CHEMBL421920
#	Creating user name:	trannguyen
#	Creation time:		Tue Feb  8 17:54:08 2022


#	Modifying user name:	trannguyen
#	Modification time:	Tue Feb  8 17:54:08 2022

@<TRIPOS>MOLECULE
CHEMBL421920
 38 41 0 0 0
SMALL
GASTEIGER

@<TRIPOS>ATOM
      1 C           0.5603   59.0229   78.5797 C.3     1  UNL1        0.1390
      2 C          -0.6226   58.6877   79.5339 C.3     1  UNL1        0.1319
      3 O          -0.7180   59.5895   80.6368 O.3     1  UNL1       -0.3827
      4 C          -1.9731   58.6566   78.8122 C.3     1  UNL1        0.0312
      5 C          -2.3613   59.9893   78.0835 C.3     1  UNL1        0.0058
      6 C          -3.4045   59.5311   77.0101 C.3     1  UNL1        0.0002
      7 C          -3.0048   60.9869   79.1363 C.3     1  UNL1        0.0002
      8 C          -4.5645   60.9202   79.2263 C.3     1  UNL1        0.0000
      9 C          -5.3254   62.1005   78.6206 C.3     1  UNL1        0.0000
     10 C          -4.7510   63.4323   79.1232 C.3     1  UNL1        0.0012
     11 C          -4.8196   63.4589   80.6656 C.3     1  UNL1        0.0000
     12 C          -3.3050   63.4711   78.5692 C.3     1  UNL1        0.0000
     13 C          -2.9194   64.9359   78.7160 C.3     1  UNL1        0.0000
     14 C          -4.1760   65.6759   78.2562 C.3     1  UNL1        0.0013
     15 C          -5.3808   64.7116   78.4806 C.3     1  UNL1        0.0147
     16 C          -2.4025   62.4306   79.2478 C.3     1  UNL1        0.0000
     17 C          -0.9365   62.5244   78.8367 C.3     1  UNL1        0.0001
     18 C          -0.7441   62.0268   77.4404 C.3     1  UNL1        0.0036
     19 C          -1.1430   60.5616   77.2880 C.3     1  UNL1        0.0420
     20 C           0.0917   59.6229   77.2023 C.3     1  UNL1        0.1888
     21 H          -0.0725   59.2942   81.3025 H       1  UNL1        0.2104
     22 C           2.7712   60.2823   78.5559 C.2     1  UNL1        0.2417
     23 O           3.0603   59.9682   77.4295 O.2     1  UNL1       -0.2705
     24 N           1.6229   59.8510   79.2001 N.am    1  UNL1       -0.2974
     25 H           1.4202   60.1795   80.1314 H       1  UNL1        0.1499
     26 C           5.8976   61.5281   80.6070 C.3     1  UNL1        0.0305
     27 C           4.8729   60.7830   79.7952 C.2     1  UNL1       -0.0256
     28 C           3.6522   61.2182   79.4007 C.2     1  UNL1        0.0272
     29 C           3.1041   62.5719   79.7413 C.3     1  UNL1        0.0354
     30 C          -6.6189   65.4113   79.1542 C.3     1  UNL1        0.0576
     31 C          -7.8819   64.5153   79.2123 C.3     1  UNL1        0.0173
     32 N          -6.9496   66.7497   78.5815 N.3     1  UNL1       -0.2716
     33 C          -8.2032   66.7343   77.8118 C.3     1  UNL1        0.0896
     34 C          -7.0628   67.7969   79.6032 C.3     1  UNL1        0.0896
     35 O          -0.1624   58.5262   76.2608 O.3     1  UNL1       -0.4504
     36 C           0.6339   57.4113   76.3520 C.2     1  UNL1        0.3175
     37 C          -0.1571   56.2155   76.7422 C.3     1  UNL1        0.1212
     38 O           1.8358   57.3405   76.1386 O.2     1  UNL1       -0.2501
@<TRIPOS>BOND
     1    26    27    1
     2    27    28    2
     3    28    29    1
     4    28    22    1
     5    22    23    2
     6    22    24   am
     7    24    25    1
     8     1     2    1
     9     1    20    1
    10     1    24    1
    11     2     3    1
    12     2     4    1
    13     3    21    1
    14     4     5    1
    15     5     6    1
    16     5     7    1
    17     5    19    1
    18     7     8    1
    19     7    16    1
    20     8     9    1
    21     9    10    1
    22    10    11    1
    23    10    12    1
    24    10    15    1
    25    12    13    1
    26    12    16    1
    27    13    14    1
    28    14    15    1
    29    15    30    1
    30    30    32    1
    31    30    31    1
    32    32    33    1
    33    32    34    1
    34    16    17    1
    35    17    18    1
    36    18    19    1
    37    19    20    1
    38    20    35    1
    39    35    36    1
    40    36    37    1
    41    36    38    2
#	Name:			CHEMBL421974
#	Creating user name:	trannguyen
#	Creation time:		Tue Feb  8 17:54:08 2022


#	Modifying user name:	trannguyen
#	Modification time:	Tue Feb  8 17:54:08 2022

@<TRIPOS>MOLECULE
CHEMBL421974
 37 40 0 0 0
SMALL
GASTEIGER

@<TRIPOS>ATOM
      1 C          -3.7389   58.5973   77.2438 C.3     1  UNL1        0.0000
      2 C          -2.5989   58.5405   76.1756 C.3     1  UNL1        0.0001
      3 C          -2.2767   57.2903   75.2785 C.3     1  UNL1        0.0017
      4 C          -2.8742   55.8202   75.4962 C.3     1  UNL1        0.0212
      5 C          -2.2353   54.9456   76.5676 C.3     1  UNL1        0.0894
      6 C           0.1846   55.4345   77.0176 C.2     1  UNL1        0.2269
      7 O           0.5886   55.0189   75.9936 O.2     1  UNL1       -0.2747
      8 N          -1.1669   55.2764   77.5045 N.am    1  UNL1       -0.3041
      9 H          -1.3591   56.1001   78.0400 H       1  UNL1        0.1494
     10 C           1.1508   56.1815   77.8427 C.3     1  UNL1        0.1113
     11 C           0.3463   60.3780   77.8173 C.ar    1  UNL1        0.0479
     12 C           0.8836   59.6961   76.7028 C.ar    1  UNL1        0.0142
     13 C           1.1390   58.3496   76.7075 C.ar    1  UNL1       -0.0025
     14 C           0.8088   57.6122   77.8253 C.ar    1  UNL1       -0.0130
     15 C           0.2325   58.2757   78.9427 C.ar    1  UNL1       -0.0025
     16 C           0.0417   59.6270   78.9419 C.ar    1  UNL1        0.0142
     17 C          -0.0548   62.4657   79.0480 C.3     1  UNL1        0.1122
     18 N           0.1849   61.7688   77.7956 N.pl3   1  UNL1       -0.3041
     19 C          -0.3997   62.3178   76.5857 C.3     1  UNL1        0.1122
     20 C          -3.4110   58.1706   78.6865 C.3     1  UNL1        0.0000
     21 C          -4.2738   56.9744   79.0052 C.3     1  UNL1        0.0000
     22 C          -5.4069   56.6436   78.0384 C.3     1  UNL1        0.0000
     23 C          -6.4998   55.7764   78.6580 C.3     1  UNL1        0.0014
     24 C          -7.8928   55.3894   78.1392 C.3     1  UNL1        0.0171
     25 C          -8.9463   56.5183   77.8305 C.3     1  UNL1        0.0685
     26 N          -8.9193   57.6115   76.8267 N.3     1  UNL1       -0.2996
     27 H          -8.5697   57.3375   75.9253 H       1  UNL1        0.1232
     28 C          -8.4567   58.9746   77.1352 C.3     1  UNL1        0.0419
     29 C          -8.0993   59.1094   78.6591 C.3     1  UNL1        0.0144
     30 C          -7.5858   60.5461   78.9555 C.3     1  UNL1        0.0013
     31 C          -6.3802   60.8279   78.0415 C.3     1  UNL1        0.0001
     32 C          -6.7690   60.7314   76.5573 C.3     1  UNL1        0.0013
     33 C          -7.8924   61.7415   76.2519 C.3     1  UNL1        0.0001
     34 C          -9.0639   61.4892   77.1863 C.3     1  UNL1        0.0013
     35 C          -8.6805   61.5880   78.6600 C.3     1  UNL1        0.0001
     36 C          -9.4988   60.0685   76.9267 C.3     1  UNL1        0.0144
     37 C          -7.2441   59.3033   76.2737 C.3     1  UNL1        0.0144
@<TRIPOS>BOND
     1    17    18    1
     2    18    19    1
     3    18    11    1
     4    11    12   ar
     5    11    16   ar
     6    12    13   ar
     7    13    14   ar
     8    14    10    1
     9    14    15   ar
    10    10     6    1
    11     6     7    2
    12     6     8   am
    13     8     5    1
    14     8     9    1
    15     5     4    1
    16     4     3    1
    17     3     2    1
    18     2     1    1
    19     1    20    1
    20    20    21    1
    21    21    22    1
    22    22    23    1
    23    23    24    1
    24    24    25    1
    25    25    26    1
    26    26    28    1
    27    26    27    1
    28    28    29    1
    29    28    36    1
    30    28    37    1
    31    29    30    1
    32    30    31    1
    33    30    35    1
    34    31    32    1
    35    32    33    1
    36    32    37    1
    37    33    34    1
    38    34    35    1
    39    34    36    1
    40    15    16   ar
#	Name:			CHEMBL422098
#	Creating user name:	trannguyen
#	Creation time:		Tue Feb  8 17:54:08 2022


#	Modifying user name:	trannguyen
#	Modification time:	Tue Feb  8 17:54:08 2022

@<TRIPOS>MOLECULE
CHEMBL422098
 29 32 0 0 0
SMALL
GASTEIGER

@<TRIPOS>ATOM
      1 C          -8.0890   63.2188   77.1896 C.3     1  UNL1        0.0716
      2 C          -7.6290   62.4917   75.9095 C.3     1  UNL1        0.0196
      3 C          -8.2406   61.0920   75.7636 C.3     1  UNL1        0.0017
      4 C          -7.9950   60.1503   76.9862 C.3     1  UNL1        0.0001
      5 C          -9.3708   59.4611   77.2649 C.3     1  UNL1        0.0000
      6 C          -7.5049   60.9766   78.2041 C.3     1  UNL1        0.0016
      7 C          -7.4409   60.1186   79.4705 C.3     1  UNL1        0.0001
      8 C          -6.4140   59.0068   79.2565 C.3     1  UNL1        0.0000
      9 C          -6.6324   58.1536   77.9989 C.3     1  UNL1        0.0000
     10 C          -6.9463   59.0048   76.7207 C.3     1  UNL1        0.0000
     11 C          -5.6567   59.3883   75.9263 C.3     1  UNL1        0.0000
     12 C          -4.2753   59.1560   76.5781 C.3     1  UNL1        0.0000
     13 C          -4.0884   57.8658   77.4111 C.3     1  UNL1        0.0012
     14 C          -3.2831   58.2041   78.7010 C.3     1  UNL1        0.0000
     15 C          -3.3764   56.6317   76.7429 C.3     1  UNL1        0.0147
     16 C          -3.9360   55.4263   77.5895 C.3     1  UNL1        0.0013
     17 C          -5.1955   55.9274   78.3325 C.3     1  UNL1        0.0000
     18 C          -5.4829   57.2186   77.6016 C.3     1  UNL1        0.0000
     19 C          -8.3158   62.2633   78.3778 C.3     1  UNL1        0.0196
     20 C          -6.3316   66.3361   78.4980 C.3     1  UNL1        0.0946
     21 C          -7.4962   65.4338   78.1736 C.2     1  UNL1        0.2229
     22 O          -8.6475   65.7219   78.4642 O.2     1  UNL1       -0.2751
     23 N          -7.1237   64.2540   77.5663 N.am    1  UNL1       -0.3060
     24 H          -6.1590   64.1377   77.2850 H       1  UNL1        0.1494
     25 C          -1.8127   56.5923   76.6585 C.3     1  UNL1        0.0576
     26 C          -1.2532   57.5674   75.6123 C.3     1  UNL1        0.0173
     27 N          -1.3143   55.2027   76.4940 N.3     1  UNL1       -0.2716
     28 C          -1.4163   54.6683   75.1383 C.3     1  UNL1        0.0896
     29 C           0.0466   55.0291   77.0060 C.3     1  UNL1        0.0896
@<TRIPOS>BOND
     1    20    21    1
     2    21    22    2
     3    21    23   am
     4    23    24    1
     5     1     2    1
     6     1    19    1
     7     1    23    1
     8     2     3    1
     9     3     4    1
    10     4     5    1
    11     4     6    1
    12     4    10    1
    13     6     7    1
    14     6    19    1
    15     7     8    1
    16     8     9    1
    17     9    10    1
    18     9    18    1
    19    10    11    1
    20    11    12    1
    21    12    13    1
    22    13    14    1
    23    13    15    1
    24    13    18    1
    25    15    16    1
    26    25    26    1
    27    25    27    1
    28    25    15    1
    29    27    28    1
    30    27    29    1
    31    16    17    1
    32    17    18    1
#	Name:			CHEMBL424100
#	Creating user name:	trannguyen
#	Creation time:		Tue Feb  8 17:54:08 2022


#	Modifying user name:	trannguyen
#	Modification time:	Tue Feb  8 17:54:08 2022

@<TRIPOS>MOLECULE
CHEMBL424100
 34 37 0 0 0
SMALL
GASTEIGER

@<TRIPOS>ATOM
      1 C           3.3042   65.9633   62.4933 C.3     1  UNL1        0.0757
      2 C           2.4382   66.9722   63.3141 C.3     1  UNL1        0.0198
      3 C           2.6546   68.4462   63.0189 C.3     1  UNL1        0.0017
      4 C           4.1413   68.8990   63.0927 C.3     1  UNL1        0.0001
      5 C           4.2440   69.9936   61.9808 C.3     1  UNL1        0.0000
      6 C           5.1018   67.7017   62.8472 C.3     1  UNL1        0.0016
      7 C           6.5312   68.2028   62.6268 C.3     1  UNL1        0.0001
      8 C           7.0058   69.0007   63.8659 C.3     1  UNL1        0.0000
      9 C           6.0109   70.0690   64.4108 C.3     1  UNL1        0.0006
     10 C           6.4518   70.7128   65.7552 C.3     1  UNL1        0.0078
     11 C           5.7732   72.0771   66.0097 C.3     1  UNL1        0.0257
     12 C           5.8068   72.1961   67.4991 C.2     1  UNL1       -0.0333
     13 C           6.0527   71.0211   68.1057 C.2     1  UNL1       -0.0348
     14 C           6.1729   69.9056   67.0582 C.3     1  UNL1        0.0164
     15 C           7.3494   68.9607   67.3537 C.3     1  UNL1        0.0041
     16 C           4.8208   69.1677   67.0253 C.3     1  UNL1        0.0038
     17 C           4.4280   68.5614   65.6861 C.3     1  UNL1        0.0003
     18 C           4.5589   69.5252   64.4804 C.3     1  UNL1        0.0000
     19 C           4.5188   66.7112   61.8430 C.3     1  UNL1        0.0198
     20 C           3.0114   64.5370   64.5321 C.2     1  UNL1        0.2485
     21 O           2.0149   65.1305   64.8907 O.2     1  UNL1       -0.2699
     22 N           3.6120   64.6993   63.3041 N.am    1  UNL1       -0.2760
     23 C           4.8924   64.0365   63.0528 C.3     1  UNL1        0.1151
     24 C           2.8862   64.8055   67.5454 C.3     1  UNL1        0.0265
     25 C           3.5666   63.6653   66.8139 C.2     1  UNL1       -0.0397
     26 C           3.6187   63.5510   65.4828 C.2     1  UNL1        0.0495
     27 C           4.2028   62.6298   67.7511 C.3     1  UNL1        0.0185
     28 C           4.8976   63.3429   68.9134 C.3     1  UNL1        0.0044
     29 C           3.2359   61.5710   68.2980 C.3     1  UNL1        0.0044
     30 C           6.0181   70.7373   69.6076 C.3     1  UNL1        0.0759
     31 C           4.7281   71.3492   70.1979 C.3     1  UNL1        0.0219
     32 N           7.2055   71.2217   70.3614 N.3     1  UNL1       -0.2682
     33 C           7.6160   70.2661   71.4010 C.3     1  UNL1        0.0899
     34 C           8.3591   71.4840   69.4927 C.3     1  UNL1        0.0899
@<TRIPOS>BOND
     1    24    25    1
     2    25    26    2
     3    25    27    1
     4    26    20    1
     5    20    21    2
     6    20    22   am
     7    22    23    1
     8     1     2    1
     9     1    19    1
    10     1    22    1
    11     2     3    1
    12     3     4    1
    13     4     5    1
    14     4     6    1
    15     4    18    1
    16     6     7    1
    17     6    19    1
    18     7     8    1
    19     8     9    1
    20     9    10    1
    21     9    18    1
    22    10    11    1
    23    10    14    1
    24    11    12    1
    25    12    13    2
    26    13    14    1
    27    30    31    1
    28    30    32    1
    29    30    13    1
    30    32    33    1
    31    32    34    1
    32    14    15    1
    33    14    16    1
    34    16    17    1
    35    17    18    1
    36    27    28    1
    37    27    29    1
#	Name:			CHEMBL439814
#	Creating user name:	trannguyen
#	Creation time:		Tue Feb  8 17:54:08 2022


#	Modifying user name:	trannguyen
#	Modification time:	Tue Feb  8 17:54:08 2022

@<TRIPOS>MOLECULE
CHEMBL439814
 19 20 0 0 0
SMALL
GASTEIGER

@<TRIPOS>ATOM
      1 C           4.3071   67.7146   61.3596 C.3     1  UNL1        0.1710
      2 N           3.3818   67.9257   62.5630 N.4     1  UNL1        0.3120
      3 C           2.1361   68.6337   62.0705 C.3     1  UNL1        0.1710
      4 C           3.0371   66.5355   63.1475 C.3     1  UNL1        0.1419
      5 C           2.3446   66.6558   64.5119 C.3     1  UNL1        0.2057
      6 O           3.1154   67.3970   65.4667 O.3     1  UNL1       -0.3204
      7 C           3.4128   68.7278   65.0376 C.3     1  UNL1        0.2563
      8 O           2.1864   69.4507   64.9672 O.3     1  UNL1       -0.3562
      9 C           4.1397   68.7272   63.6471 C.3     1  UNL1        0.1704
     10 H           1.9105   69.5671   65.8950 H       1  UNL1        0.2133
     11 C           4.3196   69.3910   66.0783 C.ar    1  UNL1        0.0342
     12 C           3.8133   69.7828   67.3327 C.ar    1  UNL1        0.0022
     13 C           4.6396   70.3787   68.2916 C.ar    1  UNL1        0.0197
     14 C           5.9927   70.5876   68.0042 C.ar    1  UNL1        0.0918
     15 C           6.5221   70.1953   66.7697 C.ar    1  UNL1        0.0197
     16 C           5.6899   69.5941   65.8197 C.ar    1  UNL1        0.0022
     17 N           6.8638   71.2191   69.0040 N.pl3   1  UNL1       -0.1853
     18 O           7.5351   72.1967   68.6483 O.2     1  UNL1       -0.1725
     19 O           6.8710   70.7356   70.1454 O.co2   1  UNL1       -0.7770
@<TRIPOS>UNITY_ATOM_ATTR
2 1
charge 1
19 1
charge -1
@<TRIPOS>BOND
     1     1     2    1
     2     2     3    1
     3     2     4    1
     4     2     9    1
     5     4     5    1
     6     5     6    1
     7     6     7    1
     8     7     8    1
     9     7    11    1
    10     7     9    1
    11     8    10    1
    12    11    12   ar
    13    11    16   ar
    14    12    13   ar
    15    13    14   ar
    16    14    17    1
    17    14    15   ar
    18    17    18    2
    19    17    19    1
    20    15    16   ar
#	Name:			CHEMBL442287
#	Creating user name:	trannguyen
#	Creation time:		Tue Feb  8 17:54:08 2022


#	Modifying user name:	trannguyen
#	Modification time:	Tue Feb  8 17:54:08 2022

@<TRIPOS>MOLECULE
CHEMBL442287
 25 28 0 0 0
SMALL
GASTEIGER

@<TRIPOS>ATOM
      1 N          -4.2900   58.9803   77.6887 N.3     1  UNL1       -0.2654
      2 C          -3.3720   59.7864   78.5306 C.3     1  UNL1        0.0734
      3 C          -1.9212   59.3076   78.7332 C.3     1  UNL1        0.0290
      4 C          -1.0476   59.3218   77.4644 C.3     1  UNL1        0.0780
      5 C          -1.0788   60.6544   76.7051 C.2     1  UNL1       -0.0213
      6 C          -0.2551   61.6112   77.1859 C.2     1  UNL1       -0.0015
      7 C           1.2285   61.2912   77.1452 C.3     1  UNL1        0.1358
      8 O           1.8365   62.0053   76.0830 O.3     1  UNL1       -0.3799
      9 C           1.4735   59.7889   76.9657 C.3     1  UNL1        0.0779
     10 C           0.4476   58.9419   77.7538 C.3     1  UNL1        0.1761
     11 O           0.6748   57.5675   77.3840 O.3     1  UNL1       -0.4757
     12 C          -0.4178   57.1841   76.6527 C.ar    1  UNL1        0.1682
     13 C          -0.5796   55.9400   76.0663 C.ar    1  UNL1        0.1721
     14 C          -1.8362   55.6440   75.5265 C.ar    1  UNL1        0.0397
     15 C          -2.8857   56.5827   75.5660 C.ar    1  UNL1        0.0001
     16 C          -2.6976   57.8474   76.1416 C.ar    1  UNL1       -0.0066
     17 C          -1.4368   58.1292   76.6553 C.ar    1  UNL1        0.0187
     18 C          -3.8261   58.8411   76.2917 C.3     1  UNL1        0.0992
     19 H           1.3246   62.8194   75.9397 H       1  UNL1        0.2108
     20 O           0.3437   54.9329   76.0283 O.3     1  UNL1       -0.4684
     21 C           0.3473   54.0524   77.1497 C.3     1  UNL1        0.2526
     22 C          -5.6090   59.6518   77.7193 C.3     1  UNL1        0.0951
     23 C          -7.0668   57.6889   77.2207 C.2     1  UNL1       -0.0078
     24 C          -6.7120   58.9505   76.9524 C.2     1  UNL1       -0.0280
     25 C          -7.3528   59.7291   75.8364 C.3     1  UNL1        0.0278
@<TRIPOS>BOND
     1    23    24    2
     2    24    25    1
     3    24    22    1
     4    22     1    1
     5     1     2    1
     6     1    18    1
     7     2     3    1
     8     4     3    1
     9     4     5    1
    10     4    10    1
    11     4    17    1
    12     5     6    2
    13     6     7    1
    14     7     9    1
    15     7     8    1
    16     8    19    1
    17     9    10    1
    18    10    11    1
    19    11    12    1
    20    12    13   ar
    21    12    17   ar
    22    13    20    1
    23    13    14   ar
    24    20    21    1
    25    14    15   ar
    26    15    16   ar
    27    16    17   ar
    28    16    18    1
#	Name:			CHEMBL453326
#	Creating user name:	trannguyen
#	Creation time:		Tue Feb  8 17:54:08 2022


#	Modifying user name:	trannguyen
#	Modification time:	Tue Feb  8 17:54:08 2022

@<TRIPOS>MOLECULE
CHEMBL453326
 25 29 0 0 0
SMALL
GASTEIGER

@<TRIPOS>ATOM
      1 C          -1.0073   51.9446   75.9121 C.3     1  UNL1        0.1336
      2 N          -1.5280   53.2793   76.1487 N.ar    1  UNL1       -0.2921
      3 C          -0.6646   54.3585   76.2202 C.ar    1  UNL1        0.0816
      4 C          -1.1280   55.6007   76.4253 C.ar    1  UNL1        0.0593
      5 C          -2.5535   55.8397   76.5645 C.ar    1  UNL1        0.0270
      6 C          -3.4022   54.7977   76.5186 C.ar    1  UNL1        0.0624
      7 C          -2.9172   53.4025   76.2980 C.ar    1  UNL1        0.2611
      8 O          -3.6987   52.4958   76.2594 O.2     1  UNL1       -0.2670
      9 C          -3.0490   57.2080   76.7877 C.ar    1  UNL1        0.0831
     10 N          -4.3844   57.4074   76.7532 N.ar    1  UNL1       -0.2453
     11 C          -4.8530   58.6084   77.0961 C.ar    1  UNL1        0.0817
     12 C          -6.1982   58.8765   76.9181 C.ar    1  UNL1        0.0258
     13 C          -6.7117   60.0934   77.3344 C.ar    1  UNL1        0.0361
     14 BR         -7.4140   61.1745   75.8910 Br      1  UNL1       -0.0489
     15 C          -6.0011   60.8031   78.2835 C.ar    1  UNL1        0.0068
     16 C          -4.6208   60.7158   78.2553 C.ar    1  UNL1        0.0020
     17 C          -4.0180   59.6432   77.5684 C.ar    1  UNL1        0.0178
     18 C          -2.6190   59.4975   77.3744 C.ar    1  UNL1        0.0060
     19 C          -1.6959   60.5558   77.4872 C.ar    1  UNL1        0.0208
     20 C          -0.3560   60.3178   77.2371 C.ar    1  UNL1        0.0989
     21 N           0.1388   59.1029   76.9439 N.ar    1  UNL1       -0.2406
     22 C          -0.7456   58.0779   76.8406 C.ar    1  UNL1        0.1216
     23 C          -2.1329   58.2391   76.9997 C.ar    1  UNL1        0.0385
     24 C          -0.1600   56.7384   76.5236 C.2     1  UNL1        0.2146
     25 O           1.0415   56.5690   76.3700 O.2     1  UNL1       -0.2849
@<TRIPOS>BOND
     1     1     2    1
     2     2     3   ar
     3     2     7   ar
     4     3     4   ar
     5     4     5   ar
     6     4    24    1
     7     5     6   ar
     8     5     9    1
     9     6     7   ar
    10     7     8    2
    11     9    10   ar
    12     9    23   ar
    13    10    11   ar
    14    11    12   ar
    15    11    17   ar
    16    12    13   ar
    17    13    14    1
    18    13    15   ar
    19    15    16   ar
    20    16    17   ar
    21    17    18   ar
    22    18    19   ar
    23    18    23   ar
    24    19    20   ar
    25    20    21   ar
    26    21    22   ar
    27    22    23   ar
    28    22    24    1
    29    24    25    2
#	Name:			CHEMBL462795
#	Creating user name:	trannguyen
#	Creation time:		Tue Feb  8 17:54:08 2022


#	Modifying user name:	trannguyen
#	Modification time:	Tue Feb  8 17:54:08 2022

@<TRIPOS>MOLECULE
CHEMBL462795
 34 38 0 0 0
SMALL
GASTEIGER

@<TRIPOS>ATOM
      1 C          -8.3564   60.6607   77.1919 C.3     1  UNL1        0.0184
      2 C          -9.6217   61.1086   77.9794 C.3     1  UNL1        0.0041
      3 C          -9.8121   60.1125   79.1345 C.3     1  UNL1        0.0027
      4 C          -8.3967   59.5820   79.4197 C.3     1  UNL1        0.0251
      5 C          -7.6297   60.6442   80.2467 C.3     1  UNL1        0.0024
      6 C          -8.3236   58.2416   80.1892 C.3     1  UNL1        0.1104
      7 O          -9.3061   57.2892   79.7957 O.3     1  UNL1       -0.3845
      8 C          -6.9119   57.6104   80.1095 C.3     1  UNL1        0.0292
      9 C          -6.2725   57.4925   78.6744 C.3     1  UNL1        0.0023
     10 C          -7.0562   56.3457   77.9498 C.3     1  UNL1        0.0001
     11 C          -6.4373   58.8645   77.9025 C.3     1  UNL1        0.0005
     12 C          -5.8862   58.7564   76.4737 C.3     1  UNL1        0.0000
     13 C          -4.4025   58.3699   76.4666 C.3     1  UNL1        0.0000
     14 C          -4.1155   57.0638   77.2460 C.3     1  UNL1        0.0000
     15 C          -2.6438   56.4841   77.0511 C.3     1  UNL1        0.0002
     16 C          -1.5638   57.5022   77.4832 C.3     1  UNL1        0.0000
     17 C          -2.4278   56.1913   75.5223 C.3     1  UNL1        0.0025
     18 C          -1.7499   54.8564   75.1911 C.3     1  UNL1        0.0292
     19 C          -0.6514   54.4671   76.1727 C.3     1  UNL1        0.1104
     20 O           0.3995   55.4217   76.0502 O.3     1  UNL1       -0.3845
     21 C          -1.1915   54.3241   77.6336 C.3     1  UNL1        0.0247
     22 C          -1.5067   52.8143   77.8461 C.3     1  UNL1        0.0024
     23 C          -0.1100   54.6860   78.6731 C.3     1  UNL1        0.0024
     24 C          -2.5434   55.1248   77.8297 C.3     1  UNL1        0.0022
     25 C          -2.9858   55.2589   79.3010 C.3     1  UNL1        0.0001
     26 C          -4.4253   55.7717   79.4187 C.3     1  UNL1        0.0000
     27 C          -4.6749   57.1388   78.7278 C.3     1  UNL1        0.0001
     28 C          -3.9169   58.2162   79.5626 C.3     1  UNL1        0.0000
     29 C          -7.8794   59.4004   77.9709 C.3     1  UNL1        0.0060
     30 H          -9.5346   57.4204   78.8635 H       1  UNL1        0.2103
     31 H           1.1929   55.0460   76.4673 H       1  UNL1        0.2103
     32 C          -6.7384   62.5848   77.7159 C.2     1  UNL1       -0.0091
     33 C          -7.4802   61.8634   76.8607 C.2     1  UNL1       -0.0442
     34 C          -7.4738   62.2374   75.3948 C.3     1  UNL1        0.0263
@<TRIPOS>BOND
     1    32    33    2
     2    33    34    1
     3    33     1    1
     4     1     2    1
     5     1    29    1
     6     2     3    1
     7     3     4    1
     8     4     5    1
     9     4     6    1
    10     4    29    1
    11     6     7    1
    12     6     8    1
    13     7    30    1
    14     8     9    1
    15     9    10    1
    16     9    11    1
    17     9    27    1
    18    11    12    1
    19    11    29    1
    20    12    13    1
    21    13    14    1
    22    14    15    1
    23    14    27    1
    24    15    16    1
    25    15    17    1
    26    15    24    1
    27    17    18    1
    28    18    19    1
    29    19    21    1
    30    19    20    1
    31    20    31    1
    32    21    22    1
    33    21    23    1
    34    21    24    1
    35    24    25    1
    36    25    26    1
    37    26    27    1
    38    27    28    1
#	Name:			CHEMBL4647757
#	Creating user name:	trannguyen
#	Creation time:		Tue Feb  8 17:54:08 2022


#	Modifying user name:	trannguyen
#	Modification time:	Tue Feb  8 17:54:08 2022

@<TRIPOS>MOLECULE
CHEMBL4647757
 33 35 0 0 0
SMALL
GASTEIGER

@<TRIPOS>ATOM
      1 C           1.6220   68.3146   66.3834 C.3     1  UNL1        0.0871
      2 N           1.9045   66.9584   65.8928 N.pl3   1  UNL1       -0.3328
      3 H           1.1243   66.3360   66.0631 H       1  UNL1        0.1468
      4 C           2.6836   66.5891   64.7771 C.ar    1  UNL1        0.0431
      5 C           2.8552   67.4199   63.6428 C.ar    1  UNL1        0.0045
      6 C           3.6567   66.9572   62.5888 C.ar    1  UNL1        0.0561
      7 N           4.3775   65.8236   62.6391 N.ar    1  UNL1       -0.2499
      8 C           4.2446   65.0329   63.6938 C.ar    1  UNL1        0.0820
      9 C           4.9604   63.8479   63.6247 C.ar    1  UNL1        0.0191
     10 C           4.8321   62.8585   64.5896 C.ar    1  UNL1        0.0015
     11 C           3.9863   63.0795   65.6636 C.ar    1  UNL1        0.0001
     12 C           3.3005   64.2997   65.7788 C.ar    1  UNL1        0.0027
     13 C           3.3973   65.3232   64.7906 C.ar    1  UNL1        0.0305
     14 C           3.7792   67.6863   61.2768 C.3     1  UNL1        0.0455
     15 C           2.6883   68.7224   61.0637 C.3     1  UNL1        0.0066
     16 C           2.6076   69.5977   62.2968 C.3     1  UNL1        0.0052
     17 C           2.1789   68.7572   63.4908 C.3     1  UNL1        0.0288
     18 C           2.8289   68.9289   67.0991 C.3     1  UNL1        0.0229
     19 C           2.5643   69.2067   68.5922 C.3     1  UNL1        0.0230
     20 C           3.2781   70.4859   69.0604 C.3     1  UNL1        0.0895
     21 C           5.7496   70.5487   69.4403 C.2     1  UNL1        0.2374
     22 O           5.6465   70.4440   70.6607 O.2     1  UNL1       -0.2736
     23 N           4.6565   70.5694   68.5914 N.am    1  UNL1       -0.3032
     24 H           4.8717   70.3611   67.6183 H       1  UNL1        0.1495
     25 C           7.1362   70.7154   68.7607 C.3     1  UNL1        0.1392
     26 N           7.4923   72.1539   68.6110 N.3     1  UNL1       -0.3143
     27 H           8.4076   72.1732   68.1452 H       1  UNL1        0.1193
     28 H           7.6670   72.5269   69.5455 H       1  UNL1        0.1193
     29 C           7.1804   69.9651   67.4146 C.3     1  UNL1        0.0833
     30 S           6.2555   70.8713   66.1023 S.3     1  UNL1       -0.1241
     31 C           5.4914   69.4509   65.2546 C.3     1  UNL1        0.1342
     32 C           6.0371   69.4437   62.6434 C.1     1  UNL1       -0.0133
     33 C           5.7803   69.4506   63.8096 C.1     1  UNL1       -0.0660
@<TRIPOS>BOND
     1    32    33    3
     2    33    31    1
     3    31    30    1
     4    30    29    1
     5    29    25    1
     6    25    26    1
     7    25    21    1
     8    26    27    1
     9    26    28    1
    10    21    22    2
    11    21    23   am
    12    23    20    1
    13    23    24    1
    14    20    19    1
    15    19    18    1
    16    18     1    1
    17     1     2    1
    18     2     4    1
    19     2     3    1
    20     4     5   ar
    21     4    13   ar
    22     5     6   ar
    23     5    17    1
    24     6     7   ar
    25     6    14    1
    26     7     8   ar
    27     8     9   ar
    28     8    13   ar
    29     9    10   ar
    30    10    11   ar
    31    11    12   ar
    32    12    13   ar
    33    14    15    1
    34    15    16    1
    35    16    17    1
#	Name:			CHEMBL537388
#	Creating user name:	trannguyen
#	Creation time:		Tue Feb  8 17:54:08 2022


#	Modifying user name:	trannguyen
#	Modification time:	Tue Feb  8 17:54:08 2022

@<TRIPOS>MOLECULE
CHEMBL537388
 27 30 0 0 0
SMALL
GASTEIGER

@<TRIPOS>ATOM
      1 N           1.9731   59.6339   76.1601 N.pl3   1  UNL1       -0.3167
      2 H           2.9710   59.5277   75.9241 H       1  UNL1        0.1482
      3 C          -0.3969   56.2327   76.6738 C.ar    1  UNL1        0.1030
      4 C           0.6735   56.4735   77.5619 C.ar    1  UNL1        0.0238
      5 C           1.4721   57.5921   77.3764 C.ar    1  UNL1        0.0375
      6 C           1.1934   58.4645   76.3289 C.ar    1  UNL1        0.1503
      7 N           0.1696   58.1841   75.4808 N.ar    1  UNL1       -0.1331
      8 N          -0.5868   57.0956   75.6400 N.ar    1  UNL1       -0.1468
      9 C          -1.6796   52.5887   75.1114 C.ar    1  UNL1        0.0000
     10 C          -2.9032   53.4526   78.6292 C.ar    1  UNL1        0.0000
     11 C          -1.4684   54.3532   78.1235 C.ar    1  UNL1        0.0016
     12 C          -1.3323   55.0738   76.8552 C.ar    1  UNL1        0.0194
     13 C          -2.2141   54.6424   75.8859 C.ar    1  UNL1        0.0016
     14 C          -3.5655   53.6851   76.7810 C.ar    1  UNL1        0.0000
     15 C           1.4193   60.9608   76.3546 C.3     1  UNL1        0.0897
     16 C           0.9814   61.0913   77.8137 C.3     1  UNL1        0.0385
     17 C          -0.4391   61.6664   78.0070 C.3     1  UNL1        0.0741
     18 N          -1.4833   60.6325   78.2859 N.3     1  UNL1       -0.2686
     19 C          -0.9214   59.5374   79.0929 C.3     1  UNL1        0.0771
     20 C          -2.0381   58.6297   79.6320 C.3     1  UNL1        0.0434
     21 C          -3.0060   58.2257   78.5509 C.ar    1  UNL1       -0.0234
     22 C          -3.8854   57.1506   78.7569 C.ar    1  UNL1       -0.0045
     23 C          -4.7677   56.7570   77.7434 C.ar    1  UNL1       -0.0003
     24 C          -4.7809   57.4346   76.5232 C.ar    1  UNL1       -0.0003
     25 C          -3.9144   58.5058   76.3147 C.ar    1  UNL1       -0.0032
     26 C          -3.0358   58.9143   77.3258 C.ar    1  UNL1       -0.0101
     27 C          -2.1409   60.0932   77.0679 C.3     1  UNL1        0.0988
@<TRIPOS>BOND
     1     9    10   ar
     2     9    14   ar
     3    10    11   ar
     4    11    12   ar
     5    12     3    1
     6    12    13   ar
     7     3     4   ar
     8     3     8   ar
     9     4     5   ar
    10     5     6   ar
    11     6     1    1
    12     6     7   ar
    13     1    15    1
    14     1     2    1
    15    15    16    1
    16    16    17    1
    17    17    18    1
    18    18    19    1
    19    18    27    1
    20    19    20    1
    21    20    21    1
    22    21    22   ar
    23    21    26   ar
    24    22    23   ar
    25    23    24   ar
    26    24    25   ar
    27    25    26   ar
    28    26    27    1
    29     7     8   ar
    30    13    14   ar
#	Name:			CHEMBL538062
#	Creating user name:	trannguyen
#	Creation time:		Tue Feb  8 17:54:08 2022


#	Modifying user name:	trannguyen
#	Modification time:	Tue Feb  8 17:54:08 2022

@<TRIPOS>MOLECULE
CHEMBL538062
 25 27 0 0 0
SMALL
GASTEIGER

@<TRIPOS>ATOM
      1 N           1.9829   68.6901   65.1408 N.pl3   1  UNL1       -0.3155
      2 H           1.1714   68.1514   65.4840 H       1  UNL1        0.1483
      3 C           2.9706   69.1183   66.0522 C.ar    1  UNL1        0.1503
      4 C           2.6163   69.8686   67.1703 C.ar    1  UNL1        0.0375
      5 C           3.6134   70.3284   68.0178 C.ar    1  UNL1        0.0238
      6 C           4.9466   69.9786   67.7617 C.ar    1  UNL1        0.1030
      7 N           1.8779   67.2390   69.5386 N.ar    1  UNL1       -0.1468
      8 N           6.2366   69.9619   64.1685 N.ar    1  UNL1       -0.1331
      9 C           6.0397   70.4269   68.6409 C.ar    1  UNL1        0.0194
     10 C           6.0169   70.1417   70.0176 C.ar    1  UNL1        0.0016
     11 C           7.0508   70.5854   70.8430 C.ar    1  UNL1        0.0000
     12 C           8.1273   71.2909   70.2994 C.ar    1  UNL1        0.0000
     13 C           8.1617   71.5709   68.9307 C.ar    1  UNL1        0.0000
     14 C           7.1143   71.1566   68.1052 C.ar    1  UNL1        0.0016
     15 C           2.0360   69.1254   63.7649 C.3     1  UNL1        0.1057
     16 C           2.4899   67.9829   62.8651 C.3     1  UNL1        0.0939
     17 C           4.3716   68.9902   61.6859 C.3     1  UNL1        0.0899
     18 N           3.9580   67.9738   62.6732 N.3     1  UNL1       -0.2663
     19 C           4.3900   66.6242   62.2508 C.3     1  UNL1        0.0992
     20 C           4.1697   65.5924   63.3368 C.ar    1  UNL1       -0.0061
     21 C           3.3254   65.8547   64.4349 C.ar    1  UNL1       -0.0029
     22 C           3.1253   64.8820   65.4173 C.ar    1  UNL1       -0.0003
     23 C           3.7645   63.6444   65.3179 C.ar    1  UNL1       -0.0000
     24 C           4.6089   63.3779   64.2369 C.ar    1  UNL1       -0.0003
     25 C           4.8140   64.3476   63.2505 C.ar    1  UNL1       -0.0029
@<TRIPOS>BOND
     1    17    18    1
     2    18    16    1
     3    18    19    1
     4    16    15    1
     5    15     1    1
     6     1     3    1
     7     1     2    1
     8     3     4   ar
     9     3     8   ar
    10     4     5   ar
    11     5     6   ar
    12     6     9    1
    13     6     7   ar
    14     9    10   ar
    15     9    14   ar
    16    10    11   ar
    17    11    12   ar
    18    12    13   ar
    19    13    14   ar
    20     7     8   ar
    21    19    20    1
    22    20    21   ar
    23    20    25   ar
    24    21    22   ar
    25    22    23   ar
    26    23    24   ar
    27    24    25   ar
#	Name:			CHEMBL538098
#	Creating user name:	trannguyen
#	Creation time:		Tue Feb  8 17:54:08 2022


#	Modifying user name:	trannguyen
#	Modification time:	Tue Feb  8 17:54:08 2022

@<TRIPOS>MOLECULE
CHEMBL538098
 22 24 0 0 0
SMALL
GASTEIGER

@<TRIPOS>ATOM
      1 C          -4.4292   58.5566   75.9613 C.ar    1  UNL1        0.1030
      2 C          -5.3706   58.2417   76.8940 C.ar    1  UNL1        0.0238
      3 C          -6.5658   58.8387   76.7263 C.ar    1  UNL1        0.0375
      4 C          -6.7522   59.6735   75.6246 C.ar    1  UNL1        0.1503
      5 N          -5.7201   59.8911   74.7588 N.ar    1  UNL1       -0.1331
      6 N          -4.5484   59.3246   74.9380 N.ar    1  UNL1       -0.1468
      7 C           1.3402   57.1422   77.5929 C.ar    1  UNL1        0.0000
      8 C          -0.4953   59.0832   77.0059 C.ar    1  UNL1        0.0000
      9 C          -2.0510   59.4439   76.8795 C.ar    1  UNL1        0.0016
     10 C          -3.5572   58.2402   76.2634 C.ar    1  UNL1        0.0194
     11 C          -3.0788   56.0425   75.5627 C.ar    1  UNL1        0.0016
     12 C          -0.8379   55.7135   76.1055 C.ar    1  UNL1        0.0000
     13 N          -8.0160   60.2695   75.4095 N.pl3   1  UNL1       -0.3155
     14 H          -8.5159   60.0417   74.5372 H       1  UNL1        0.1483
     15 C          -8.6322   61.1782   76.3623 C.3     1  UNL1        0.1057
     16 C          -7.7209   62.4191   76.5356 C.3     1  UNL1        0.0936
     17 N          -7.4542   62.8774   77.9270 N.3     1  UNL1       -0.2712
     18 C          -6.8090   61.8469   78.7758 C.3     1  UNL1        0.0721
     19 C          -5.2935   61.8195   78.5582 C.3     1  UNL1        0.0174
     20 C          -4.7219   63.1869   78.9426 C.3     1  UNL1        0.0029
     21 C          -5.3671   64.2927   78.0949 C.3     1  UNL1        0.0174
     22 C          -6.9070   64.2322   78.1777 C.3     1  UNL1        0.0721
@<TRIPOS>BOND
     1     7     8   ar
     2     7    12   ar
     3     8     9   ar
     4     9    10   ar
     5    10     1    1
     6    10    11   ar
     7     1     2   ar
     8     1     6   ar
     9     2     3   ar
    10     3     4   ar
    11     4    13    1
    12     4     5   ar
    13    13    15    1
    14    13    14    1
    15    15    16    1
    16    16    17    1
    17    17    18    1
    18    17    22    1
    19    18    19    1
    20    19    20    1
    21    20    21    1
    22    21    22    1
    23     5     6   ar
    24    11    12   ar
#	Name:			CHEMBL538602
#	Creating user name:	trannguyen
#	Creation time:		Tue Feb  8 17:54:08 2022


#	Modifying user name:	trannguyen
#	Modification time:	Tue Feb  8 17:54:08 2022

@<TRIPOS>MOLECULE
CHEMBL538602
 28 31 0 0 0
SMALL
GASTEIGER

@<TRIPOS>ATOM
      1 C          -3.7614   59.0903   76.5239 C.ar    1  UNL1        0.1498
      2 C          -2.5547   59.8053   76.6423 C.ar    1  UNL1        0.0389
      3 C          -1.3313   59.0987   76.7508 C.ar    1  UNL1        0.0175
      4 C          -1.3583   57.6839   76.8233 C.ar    1  UNL1        0.0484
      5 C          -2.5156   56.9737   76.7287 C.ar    1  UNL1        0.0010
      6 C          -3.7054   57.6974   76.4514 C.ar    1  UNL1        0.0349
      7 C          -2.3459   55.4318   77.1547 C.3     1  UNL1        0.0909
      8 C          -3.9198   55.2686   77.4975 C.3     1  UNL1        0.0123
      9 C          -2.2383   53.9038   77.6041 C.3     1  UNL1        0.0739
     10 C          -0.8850   53.3001   77.4850 C.3     1  UNL1        0.1491
     11 N           0.0300   54.4176   77.4594 N.4     1  UNL1        0.4809
     12 C           0.4993   54.7788   78.8109 C.3     1  UNL1        0.2116
     13 O           1.1074   54.0482   76.7170 O.3     1  UNL1       -0.1101
     14 C          -0.7577   55.4561   76.7487 C.3     1  UNL1        0.1802
     15 N          -0.2820   56.8228   76.9474 N.pl3   1  UNL1       -0.2650
     16 C           1.1040   57.2662   76.9701 C.3     1  UNL1        0.1174
     17 O          -4.9951   59.7058   76.5595 O.3     1  UNL1       -0.4100
     18 N          -7.0657   59.1677   75.4712 N.am    1  UNL1       -0.2496
     19 C          -5.8199   59.7209   75.4420 C.2     1  UNL1        0.4099
     20 O          -5.4153   60.2196   74.3994 O.2     1  UNL1       -0.2257
     21 H          -7.6057   59.1416   74.5948 H       1  UNL1        0.1582
     22 C          -7.6889   55.1695   78.4608 C.3     1  UNL1        0.0311
     23 C          -8.0042   56.6060   78.1137 C.ar    1  UNL1       -0.0206
     24 C          -8.9393   57.3435   78.8537 C.ar    1  UNL1       -0.0042
     25 C          -9.2244   58.6666   78.5006 C.ar    1  UNL1        0.0010
     26 C          -8.5929   59.2615   77.4000 C.ar    1  UNL1        0.0147
     27 C          -7.6420   58.5526   76.6484 C.ar    1  UNL1        0.0529
     28 C          -7.3529   57.2099   77.0278 C.ar    1  UNL1        0.0105
@<TRIPOS>UNITY_ATOM_ATTR
11 1
charge 1
@<TRIPOS>BOND
     1    22    23    1
     2    23    24   ar
     3    23    28   ar
     4    24    25   ar
     5    25    26   ar
     6    26    27   ar
     7    27    18    1
     8    27    28   ar
     9    18    19   am
    10    18    21    1
    11    19    20    2
    12    19    17    1
    13    17     1    1
    14     1     2   ar
    15     1     6   ar
    16     2     3   ar
    17     3     4   ar
    18     4     5   ar
    19     4    15    1
    20     5     6   ar
    21     5     7    1
    22     7     8    1
    23     7     9    1
    24     7    14    1
    25     9    10    1
    26    10    11    1
    27    11    12    1
    28    11    13    1
    29    11    14    1
    30    14    15    1
    31    15    16    1
#	Name:			CHEMBL538603
#	Creating user name:	trannguyen
#	Creation time:		Tue Feb  8 17:54:08 2022


#	Modifying user name:	trannguyen
#	Modification time:	Tue Feb  8 17:54:08 2022

@<TRIPOS>MOLECULE
CHEMBL538603
 29 32 0 0 0
SMALL
GASTEIGER

@<TRIPOS>ATOM
      1 C           4.5993   69.0382   63.4653 C.ar    1  UNL1        0.1498
      2 C           5.8374   69.6969   63.4311 C.ar    1  UNL1        0.0389
      3 C           6.4009   70.2143   64.6307 C.ar    1  UNL1        0.0175
      4 C           5.6751   70.1046   65.8458 C.ar    1  UNL1        0.0484
      5 C           4.4602   69.5011   65.8959 C.ar    1  UNL1        0.0010
      6 C           3.9731   68.9018   64.7026 C.ar    1  UNL1        0.0349
      7 C           3.6955   69.7541   67.2886 C.3     1  UNL1        0.0909
      8 C           2.2552   69.4163   66.6479 C.3     1  UNL1        0.0123
      9 C           2.8620   69.9651   68.6163 C.3     1  UNL1        0.0739
     10 C           3.6183   70.4061   69.8087 C.3     1  UNL1        0.1491
     11 N           4.9152   70.8146   69.3181 N.4     1  UNL1        0.4809
     12 C           4.9576   72.2724   69.1147 C.3     1  UNL1        0.2116
     13 O           5.8304   70.4818   70.2675 O.3     1  UNL1       -0.1101
     14 C           5.1020   69.9836   68.0932 C.3     1  UNL1        0.1802
     15 N           6.0540   70.5233   67.1153 N.pl3   1  UNL1       -0.2650
     16 C           7.3019   71.2201   67.3903 C.3     1  UNL1        0.1174
     17 O           3.9761   68.5645   62.3219 O.3     1  UNL1       -0.4100
     18 N           2.0792   67.1833   62.8400 N.am    1  UNL1       -0.2502
     19 C           2.6150   68.3144   62.2864 C.2     1  UNL1        0.4099
     20 O           1.8800   69.1087   61.7202 O.2     1  UNL1       -0.2257
     21 H           1.0554   67.0945   62.8032 H       1  UNL1        0.1582
     22 C           1.4728   66.3887   65.7352 C.3     1  UNL1        0.0323
     23 C           2.5856   65.7605   64.8962 C.ar    1  UNL1       -0.0086
     24 C           3.4044   64.7659   65.4939 C.ar    1  UNL1       -0.0031
     25 C           4.3804   64.1016   64.7623 C.ar    1  UNL1       -0.0006
     26 C           4.7076   64.5496   63.4999 C.ar    1  UNL1       -0.0031
     27 C           4.0271   65.6290   62.9256 C.ar    1  UNL1       -0.0086
     28 C           4.5813   66.2337   61.6863 C.3     1  UNL1        0.0323
     29 C           2.8623   66.1682   63.5388 C.ar    1  UNL1        0.0452
@<TRIPOS>UNITY_ATOM_ATTR
11 1
charge 1
@<TRIPOS>BOND
     1    22    23    1
     2    23    24   ar
     3    23    29   ar
     4    24    25   ar
     5    25    26   ar
     6    26    27   ar
     7    27    28    1
     8    27    29   ar
     9    29    18    1
    10    18    19   am
    11    18    21    1
    12    19    20    2
    13    19    17    1
    14    17     1    1
    15     1     2   ar
    16     1     6   ar
    17     2     3   ar
    18     3     4   ar
    19     4     5   ar
    20     4    15    1
    21     5     6   ar
    22     5     7    1
    23     7     8    1
    24     7     9    1
    25     7    14    1
    26     9    10    1
    27    10    11    1
    28    11    12    1
    29    11    13    1
    30    11    14    1
    31    14    15    1
    32    15    16    1
#	Name:			CHEMBL539062
#	Creating user name:	trannguyen
#	Creation time:		Tue Feb  8 17:54:08 2022


#	Modifying user name:	trannguyen
#	Modification time:	Tue Feb  8 17:54:08 2022

@<TRIPOS>MOLECULE
CHEMBL539062
 27 30 0 0 0
SMALL
GASTEIGER

@<TRIPOS>ATOM
      1 N          -5.4156   80.1198   64.8728 N.pl3   1  UNL1       -0.3182
      2 H          -5.6578   79.4359   64.1569 H       1  UNL1        0.1482
      3 N          -8.3524   79.7893   67.0021 N.3     1  UNL1       -0.2689
      4 C          -8.5697   79.6259   65.5258 C.3     1  UNL1        0.0741
      5 C          -7.8802   80.7459   64.6739 C.3     1  UNL1        0.0369
      6 C          -6.4522   81.1462   65.1659 C.3     1  UNL1        0.0732
      7 C          -6.6209   81.4466   66.6585 C.3     1  UNL1        0.0369
      8 C          -6.9904   80.1136   67.3262 C.3     1  UNL1        0.0741
      9 C          -9.3146   80.1806   68.0267 C.3     1  UNL1        0.0991
     10 C          -7.1613   77.9198   71.6570 C.ar    1  UNL1       -0.0000
     11 C          -8.9797   80.5731   71.9219 C.ar    1  UNL1       -0.0003
     12 C          -8.9007   80.8087   70.4711 C.ar    1  UNL1       -0.0029
     13 C          -9.1412   79.7936   69.4877 C.ar    1  UNL1       -0.0061
     14 C          -9.1072   78.4865   69.9234 C.ar    1  UNL1       -0.0029
     15 C          -9.2529   78.5819   71.4995 C.ar    1  UNL1       -0.0003
     16 C          -3.9888   80.3526   65.0359 C.ar    1  UNL1        0.1502
     17 C          -3.4618   81.6404   65.3027 C.ar    1  UNL1        0.0375
     18 C          -2.1223   81.8459   65.3851 C.ar    1  UNL1        0.0238
     19 C          -1.2494   80.7957   65.1988 C.ar    1  UNL1        0.1030
     20 N          -1.7696   79.5430   65.0100 N.ar    1  UNL1       -0.1468
     21 N          -3.0964   79.3284   64.9474 N.ar    1  UNL1       -0.1331
     22 C           0.2149   81.0703   65.1118 C.ar    1  UNL1        0.0194
     23 C           0.9742   80.6890   63.9771 C.ar    1  UNL1        0.0016
     24 C           2.3554   80.8478   63.9601 C.ar    1  UNL1        0.0000
     25 C           3.0063   81.3976   65.0581 C.ar    1  UNL1        0.0000
     26 C           2.2704   81.8200   66.1689 C.ar    1  UNL1        0.0000
     27 C           0.8810   81.6706   66.1957 C.ar    1  UNL1        0.0016
@<TRIPOS>BOND
     1    10    11   ar
     2    10    15   ar
     3    11    12   ar
     4    12    13   ar
     5    13     9    1
     6    13    14   ar
     7     9     3    1
     8     3     4    1
     9     3     8    1
    10     4     5    1
    11     5     6    1
    12     6     1    1
    13     6     7    1
    14     1    16    1
    15     1     2    1
    16    16    17   ar
    17    16    21   ar
    18    17    18   ar
    19    18    19   ar
    20    19    22    1
    21    19    20   ar
    22    22    23   ar
    23    22    27   ar
    24    23    24   ar
    25    24    25   ar
    26    25    26   ar
    27    26    27   ar
    28    20    21   ar
    29     7     8    1
    30    14    15   ar
#	Name:			CHEMBL539319
#	Creating user name:	trannguyen
#	Creation time:		Tue Feb  8 17:54:08 2022


#	Modifying user name:	trannguyen
#	Modification time:	Tue Feb  8 17:54:08 2022

@<TRIPOS>MOLECULE
CHEMBL539319
 22 24 0 0 0
SMALL
GASTEIGER

@<TRIPOS>ATOM
      1 C           4.7530   68.6447   62.9136 C.ar    1  UNL1        0.1503
      2 C           3.3965   68.9667   63.8355 C.ar    1  UNL1        0.0375
      3 C           3.5876   69.7987   65.2484 C.ar    1  UNL1        0.0238
      4 C           5.0315   69.8631   65.7599 C.ar    1  UNL1        0.1030
      5 N           6.0713   69.6950   64.7089 N.ar    1  UNL1       -0.1468
      6 N           5.9653   68.9530   63.5602 N.ar    1  UNL1       -0.1331
      7 C           4.7035   70.1691   67.4794 C.ar    1  UNL1        0.0194
      8 C           6.7379   70.4727   67.2862 C.ar    1  UNL1        0.0016
      9 C           7.3089   70.8255   68.4722 C.ar    1  UNL1        0.0000
     10 C           6.2517   70.7301   69.5536 C.ar    1  UNL1        0.0000
     11 C           3.9126   70.5337   69.8881 C.ar    1  UNL1        0.0000
     12 C           3.5176   70.2078   68.5389 C.ar    1  UNL1        0.0016
     13 N           4.8692   67.5378   62.0901 N.pl3   1  UNL1       -0.3156
     14 H           5.8564   67.6482   61.8940 H       1  UNL1        0.1483
     15 C           4.3234   66.2758   62.1146 C.3     1  UNL1        0.1043
     16 N           4.4676   63.8164   63.0694 N.3     1  UNL1       -0.2724
     17 C           3.1824   64.0488   64.6247 C.3     1  UNL1        0.0721
     18 C           2.2047   65.3011   64.5887 C.3     1  UNL1        0.0188
     19 C           3.2107   66.3802   64.3618 C.3     1  UNL1        0.0191
     20 C           4.3502   65.6351   63.4758 C.3     1  UNL1        0.0771
     21 C           6.1111   62.5189   63.5520 C.3     1  UNL1        0.0188
     22 C           4.0185   63.2695   66.9807 C.3     1  UNL1        0.0721
@<TRIPOS>BOND
     1    21    22    1
     2    22    16    1
     3    16    17    1
     4    16    20    1
     5    17    18    1
     6    18    19    1
     7    19    20    1
     8    20    15    1
     9    15    13    1
    10    13     1    1
    11    13    14    1
    12     1     2   ar
    13     1     6   ar
    14     2     3   ar
    15     3     4   ar
    16     4     7    1
    17     4     5   ar
    18     7     8   ar
    19     7    12   ar
    20     8     9   ar
    21     9    10   ar
    22    10    11   ar
    23    11    12   ar
    24     5     6   ar
#	Name:			CHEMBL539623
#	Creating user name:	trannguyen
#	Creation time:		Tue Feb  8 17:54:08 2022


#	Modifying user name:	trannguyen
#	Modification time:	Tue Feb  8 17:54:08 2022

@<TRIPOS>MOLECULE
CHEMBL539623
 28 31 0 0 0
SMALL
GASTEIGER

@<TRIPOS>ATOM
      1 C          -1.4375   55.0829   76.4370 C.ar    1  UNL1        0.1498
      2 C          -1.9789   54.4654   77.5869 C.ar    1  UNL1        0.0389
      3 C          -3.2586   54.8639   78.0789 C.ar    1  UNL1        0.0175
      4 C          -3.9492   55.9347   77.4530 C.ar    1  UNL1        0.0484
      5 C          -3.4385   56.5805   76.3746 C.ar    1  UNL1        0.0010
      6 C          -2.2193   56.0699   75.8088 C.ar    1  UNL1        0.0349
      7 C          -4.2336   57.9602   76.0444 C.3     1  UNL1        0.0909
      8 C          -2.9521   58.5713   75.3146 C.3     1  UNL1        0.0123
      9 C          -4.9483   59.3323   75.6655 C.3     1  UNL1        0.0739
     10 C          -6.3531   59.4783   76.1178 C.3     1  UNL1        0.1491
     11 N          -6.5305   58.4675   77.1359 N.4     1  UNL1        0.4809
     12 C          -6.2833   59.0266   78.4771 C.3     1  UNL1        0.2116
     13 O          -7.8234   58.0509   77.0748 O.3     1  UNL1       -0.1101
     14 C          -5.6071   57.3756   76.7024 C.3     1  UNL1        0.1802
     15 N          -5.2015   56.4544   77.7669 N.pl3   1  UNL1       -0.2650
     16 C          -6.0495   55.9296   78.8263 C.3     1  UNL1        0.1174
     17 O          -0.1407   54.8265   75.9646 O.3     1  UNL1       -0.4100
     18 N           1.4198   55.8178   77.5959 N.am    1  UNL1       -0.2499
     19 C           0.9196   54.7340   76.8698 C.2     1  UNL1        0.4099
     20 O           1.4334   53.6506   76.9827 O.2     1  UNL1       -0.2257
     21 H           2.2912   55.6385   78.1180 H       1  UNL1        0.1582
     22 C          -0.6496   57.1277   79.6459 C.3     1  UNL1        0.0323
     23 C          -0.0563   57.8101   78.4970 C.ar    1  UNL1       -0.0083
     24 C          -0.5866   59.0925   78.2650 C.ar    1  UNL1       -0.0030
     25 C          -0.1512   59.8705   77.2236 C.ar    1  UNL1       -0.0002
     26 C           0.8637   59.4048   76.4020 C.ar    1  UNL1        0.0013
     27 C           1.4080   58.1111   76.5839 C.ar    1  UNL1        0.0144
     28 C           0.9470   57.2368   77.6137 C.ar    1  UNL1        0.0492
@<TRIPOS>UNITY_ATOM_ATTR
11 1
charge 1
@<TRIPOS>BOND
     1    22    23    1
     2    23    24   ar
     3    23    28   ar
     4    24    25   ar
     5    25    26   ar
     6    26    27   ar
     7    27    28   ar
     8    28    18    1
     9    18    19   am
    10    18    21    1
    11    19    20    2
    12    19    17    1
    13    17     1    1
    14     1     2   ar
    15     1     6   ar
    16     2     3   ar
    17     3     4   ar
    18     4     5   ar
    19     4    15    1
    20     5     6   ar
    21     5     7    1
    22     7     8    1
    23     7     9    1
    24     7    14    1
    25     9    10    1
    26    10    11    1
    27    11    12    1
    28    11    13    1
    29    11    14    1
    30    14    15    1
    31    15    16    1
#	Name:			CHEMBL539624
#	Creating user name:	trannguyen
#	Creation time:		Tue Feb  8 17:54:08 2022


#	Modifying user name:	trannguyen
#	Modification time:	Tue Feb  8 17:54:08 2022

@<TRIPOS>MOLECULE
CHEMBL539624
 29 32 0 0 0
SMALL
GASTEIGER

@<TRIPOS>ATOM
      1 C           4.0727   68.6364   63.5896 C.ar    1  UNL1        0.1498
      2 C           5.2913   69.2991   63.3030 C.ar    1  UNL1        0.0389
      3 C           6.0144   69.9425   64.3502 C.ar    1  UNL1        0.0175
      4 C           5.4770   69.9722   65.6627 C.ar    1  UNL1        0.0484
      5 C           4.2610   69.4420   65.9500 C.ar    1  UNL1        0.0010
      6 C           3.5850   68.7326   64.8939 C.ar    1  UNL1        0.0349
      7 C           3.7532   69.8220   67.4483 C.3     1  UNL1        0.0909
      8 C           2.2447   69.5541   67.0577 C.3     1  UNL1        0.0123
      9 C           3.1824   70.1740   68.9063 C.3     1  UNL1        0.0739
     10 C           4.1952   70.5640   69.9201 C.3     1  UNL1        0.1491
     11 N           5.3544   70.9485   69.1519 N.4     1  UNL1        0.4809
     12 C           5.3473   72.3899   68.8461 C.3     1  UNL1        0.2116
     13 O           6.4516   70.6702   69.9052 O.3     1  UNL1       -0.1101
     14 C           5.2793   70.0402   67.9730 C.3     1  UNL1        0.1802
     15 N           6.0712   70.4644   66.8209 N.pl3   1  UNL1       -0.2650
     16 C           7.4120   71.0257   66.8668 C.3     1  UNL1        0.1174
     17 O           3.3482   67.9421   62.6374 O.3     1  UNL1       -0.4100
     18 N           4.2977   65.8807   62.1083 N.am    1  UNL1       -0.2499
     19 C           3.9066   67.0834   61.7486 C.2     1  UNL1        0.4099
     20 O           4.0743   67.4603   60.5970 O.2     1  UNL1       -0.2257
     21 H           4.8439   65.5781   61.2990 H       1  UNL1        0.1582
     22 C           3.2898   65.7227   64.3179 C.ar    1  UNL1       -0.0086
     23 C           3.0347   64.8482   65.6090 C.ar    1  UNL1       -0.0030
     24 C           3.8228   63.6938   65.8165 C.ar    1  UNL1       -0.0002
     25 C           4.7109   63.2909   64.8238 C.ar    1  UNL1        0.0013
     26 C           4.8484   64.0319   63.6449 C.ar    1  UNL1        0.0144
     27 C           4.1270   65.1898   63.4177 C.ar    1  UNL1        0.0492
     28 C           1.9169   66.6986   69.7512 C.3     1  UNL1        0.0051
     29 C           1.2504   66.1282   64.2958 C.3     1  UNL1        0.0276
@<TRIPOS>UNITY_ATOM_ATTR
11 1
charge 1
@<TRIPOS>BOND
     1    28    29    1
     2    29    22    1
     3    22    23   ar
     4    22    27   ar
     5    23    24   ar
     6    24    25   ar
     7    25    26   ar
     8    26    27   ar
     9    27    18    1
    10    18    19   am
    11    18    21    1
    12    19    20    2
    13    19    17    1
    14    17     1    1
    15     1     2   ar
    16     1     6   ar
    17     2     3   ar
    18     3     4   ar
    19     4     5   ar
    20     4    15    1
    21     5     6   ar
    22     5     7    1
    23     7     8    1
    24     7     9    1
    25     7    14    1
    26     9    10    1
    27    10    11    1
    28    11    12    1
    29    11    13    1
    30    11    14    1
    31    14    15    1
    32    15    16    1
#	Name:			CHEMBL539625
#	Creating user name:	trannguyen
#	Creation time:		Tue Feb  8 17:54:08 2022


#	Modifying user name:	trannguyen
#	Modification time:	Tue Feb  8 17:54:08 2022

@<TRIPOS>MOLECULE
CHEMBL539625
 29 32 0 0 0
SMALL
GASTEIGER

@<TRIPOS>ATOM
      1 C          -2.3468   56.7240   76.8613 C.ar    1  UNL1        0.1498
      2 C          -2.5853   57.4229   75.6472 C.ar    1  UNL1        0.0389
      3 C          -3.7676   58.2121   75.5276 C.ar    1  UNL1        0.0175
      4 C          -4.7181   58.1896   76.5843 C.ar    1  UNL1        0.0484
      5 C          -4.4983   57.4952   77.7300 C.ar    1  UNL1        0.0010
      6 C          -3.2403   56.8818   77.8934 C.ar    1  UNL1        0.0349
      7 C          -5.8166   57.3138   78.6404 C.3     1  UNL1        0.0909
      8 C          -5.2508   55.9627   79.3330 C.3     1  UNL1        0.0123
      9 C          -7.0897   57.0950   79.5601 C.3     1  UNL1        0.0739
     10 C          -8.1652   58.1045   79.4233 C.3     1  UNL1        0.1491
     11 N          -7.9147   58.7655   78.1629 N.4     1  UNL1        0.4809
     12 C          -8.6730   58.1345   77.0674 C.3     1  UNL1        0.2116
     13 O          -8.3321   60.0532   78.2880 O.3     1  UNL1       -0.1101
     14 C          -6.4317   58.7103   78.0433 C.3     1  UNL1        0.1802
     15 N          -5.9260   58.8607   76.6754 N.pl3   1  UNL1       -0.2650
     16 C          -6.4130   59.7874   75.6632 C.3     1  UNL1        0.1174
     17 O          -1.3496   55.8239   77.0690 O.3     1  UNL1       -0.4100
     18 N           0.8195   56.3528   76.1658 N.am    1  UNL1       -0.2496
     19 C          -0.3082   55.5698   76.2253 C.2     1  UNL1        0.4099
     20 O          -0.4204   54.6137   75.4666 O.2     1  UNL1       -0.2257
     21 H           1.5005   56.1351   75.4106 H       1  UNL1        0.1582
     22 C           4.0227   64.3685   80.0631 C.3     1  UNL1        0.0311
     23 C           3.9453   59.3556   79.4592 C.ar    1  UNL1       -0.0209
     24 C           1.1375   59.4324   77.7782 C.ar    1  UNL1       -0.0084
     25 C           1.1506   58.3764   79.2343 C.ar    1  UNL1       -0.0209
     26 C           0.8430   58.2040   80.7589 C.3     1  UNL1        0.0311
     27 C           0.8267   57.3689   78.4083 C.ar    1  UNL1        0.0105
     28 C           1.1153   57.4406   76.9676 C.ar    1  UNL1        0.0526
     29 C           1.0492   58.6784   75.8412 C.ar    1  UNL1        0.0105
@<TRIPOS>UNITY_ATOM_ATTR
11 1
charge 1
@<TRIPOS>BOND
     1    22    23    1
     2    23    24   ar
     3    23    29   ar
     4    24    25   ar
     5    25    26    1
     6    25    27   ar
     7    27    28   ar
     8    28    18    1
     9    28    29   ar
    10    18    19   am
    11    18    21    1
    12    19    20    2
    13    19    17    1
    14    17     1    1
    15     1     2   ar
    16     1     6   ar
    17     2     3   ar
    18     3     4   ar
    19     4     5   ar
    20     4    15    1
    21     5     6   ar
    22     5     7    1
    23     7     8    1
    24     7     9    1
    25     7    14    1
    26     9    10    1
    27    10    11    1
    28    11    12    1
    29    11    13    1
    30    11    14    1
    31    14    15    1
    32    15    16    1
#	Name:			CHEMBL539873
#	Creating user name:	trannguyen
#	Creation time:		Tue Feb  8 17:54:08 2022


#	Modifying user name:	trannguyen
#	Modification time:	Tue Feb  8 17:54:08 2022

@<TRIPOS>MOLECULE
CHEMBL539873
 29 32 0 0 0
SMALL
GASTEIGER

@<TRIPOS>ATOM
      1 C          -1.4754   55.2044   76.4223 C.ar    1  UNL1        0.1498
      2 C          -1.9452   54.5691   77.5832 C.ar    1  UNL1        0.0389
      3 C          -3.2266   54.9112   78.0902 C.ar    1  UNL1        0.0175
      4 C          -3.9524   55.9620   77.4640 C.ar    1  UNL1        0.0484
      5 C          -3.4863   56.6003   76.3601 C.ar    1  UNL1        0.0010
      6 C          -2.3067   56.1095   75.7743 C.ar    1  UNL1        0.0349
      7 C          -4.2682   57.9639   76.0193 C.3     1  UNL1        0.0909
      8 C          -2.9913   58.6017   75.2479 C.3     1  UNL1        0.0123
      9 C          -4.9932   59.3220   75.6535 C.3     1  UNL1        0.0739
     10 C          -6.3877   59.4561   76.1296 C.3     1  UNL1        0.1491
     11 N          -6.5464   58.4489   77.1543 N.4     1  UNL1        0.4809
     12 C          -6.2875   59.0078   78.4931 C.3     1  UNL1        0.2116
     13 O          -7.8350   58.0186   77.1080 O.3     1  UNL1       -0.1101
     14 C          -5.6240   57.3668   76.7168 C.3     1  UNL1        0.1802
     15 N          -5.1986   56.4606   77.7898 N.pl3   1  UNL1       -0.2650
     16 C          -6.0217   55.9185   78.8601 C.3     1  UNL1        0.1174
     17 O          -0.1967   55.0429   75.9467 O.3     1  UNL1       -0.4100
     18 N           1.3624   55.8609   77.5527 N.am    1  UNL1       -0.2496
     19 C           0.8518   54.8352   76.8304 C.2     1  UNL1        0.4099
     20 O           1.3298   53.7153   76.9573 O.2     1  UNL1       -0.2257
     21 H           2.1978   55.6700   78.1651 H       1  UNL1        0.1582
     22 C          -0.7312   59.0064   78.1254 C.ar    1  UNL1       -0.0210
     23 C          -0.0728   59.8245   77.1485 C.ar    1  UNL1       -0.0042
     24 C           0.9665   59.3277   76.3598 C.ar    1  UNL1        0.0010
     25 C           1.4094   58.0307   76.5024 C.ar    1  UNL1        0.0147
     26 C           0.8813   57.2097   77.4901 C.ar    1  UNL1        0.0529
     27 C          -0.1833   57.7137   78.3143 C.ar    1  UNL1        0.0105
     28 C          -2.8171   58.3664   79.8913 C.3     1  UNL1        0.0050
     29 C          -1.9879   59.3970   79.0165 C.3     1  UNL1        0.0264
@<TRIPOS>UNITY_ATOM_ATTR
11 1
charge 1
@<TRIPOS>BOND
     1    28    29    1
     2    29    22    1
     3    22    23   ar
     4    22    27   ar
     5    23    24   ar
     6    24    25   ar
     7    25    26   ar
     8    26    18    1
     9    26    27   ar
    10    18    19   am
    11    18    21    1
    12    19    20    2
    13    19    17    1
    14    17     1    1
    15     1     2   ar
    16     1     6   ar
    17     2     3   ar
    18     3     4   ar
    19     4     5   ar
    20     4    15    1
    21     5     6   ar
    22     5     7    1
    23     7     8    1
    24     7     9    1
    25     7    14    1
    26     9    10    1
    27    10    11    1
    28    11    12    1
    29    11    13    1
    30    11    14    1
    31    14    15    1
    32    15    16    1
#	Name:			CHEMBL539874
#	Creating user name:	trannguyen
#	Creation time:		Tue Feb  8 17:54:08 2022


#	Modifying user name:	trannguyen
#	Modification time:	Tue Feb  8 17:54:08 2022

@<TRIPOS>MOLECULE
CHEMBL539874
 22 24 0 0 0
SMALL
GASTEIGER

@<TRIPOS>ATOM
      1 C          -0.3642   62.0566   77.4741 C.ar    1  UNL1        0.1498
      2 C           0.8750   61.5204   77.8316 C.ar    1  UNL1        0.0389
      3 C           1.1206   60.1376   77.6531 C.ar    1  UNL1        0.0175
      4 C           0.0844   59.3071   77.1602 C.ar    1  UNL1        0.0484
      5 C          -1.1679   59.7914   76.9267 C.ar    1  UNL1        0.0010
      6 C          -1.3771   61.1965   77.0868 C.ar    1  UNL1        0.0349
      7 C          -2.2285   58.6414   76.6060 C.3     1  UNL1        0.0909
      8 C          -3.4856   59.6009   76.8934 C.3     1  UNL1        0.0123
      9 C          -3.3459   57.5583   76.3008 C.3     1  UNL1        0.0739
     10 C          -2.8848   56.1920   75.9562 C.3     1  UNL1        0.1491
     11 N          -1.4769   56.1641   76.2734 N.4     1  UNL1        0.4809
     12 C          -1.1265   55.4647   77.8214 C.3     1  UNL1        0.2116
     13 O          -0.8657   55.3783   75.3461 O.3     1  UNL1       -0.1101
     14 C          -1.0679   57.5862   76.1135 C.3     1  UNL1        0.1802
     15 N           0.1595   57.9609   76.8205 N.pl3   1  UNL1       -0.2650
     16 C           1.3569   57.1474   76.9980 C.3     1  UNL1        0.1174
     17 O          -0.5832   63.4066   77.4473 O.3     1  UNL1       -0.4103
     18 C          -2.8904   65.0081   77.3288 C.3     1  UNL1        0.1140
     19 N          -2.0150   64.8298   76.1764 N.am    1  UNL1       -0.2686
     20 C          -0.9096   64.0471   76.2681 C.2     1  UNL1        0.4062
     21 O          -0.1946   63.9185   75.2796 O.2     1  UNL1       -0.2260
     22 H          -2.2162   65.3318   75.2997 H       1  UNL1        0.1528
@<TRIPOS>UNITY_ATOM_ATTR
11 1
charge 1
@<TRIPOS>BOND
     1    18    19    1
     2    19    20   am
     3    19    22    1
     4    20    21    2
     5    20    17    1
     6    17     1    1
     7     1     2   ar
     8     1     6   ar
     9     2     3   ar
    10     3     4   ar
    11     4     5   ar
    12     4    15    1
    13     5     6   ar
    14     5     7    1
    15     7     8    1
    16     7     9    1
    17     7    14    1
    18     9    10    1
    19    10    11    1
    20    11    12    1
    21    11    13    1
    22    11    14    1
    23    14    15    1
    24    15    16    1
#	Name:			CHEMBL539875
#	Creating user name:	trannguyen
#	Creation time:		Tue Feb  8 17:54:08 2022


#	Modifying user name:	trannguyen
#	Modification time:	Tue Feb  8 17:54:08 2022

@<TRIPOS>MOLECULE
CHEMBL539875
 30 33 0 0 0
SMALL
GASTEIGER

@<TRIPOS>ATOM
      1 C           2.0411   68.8260   66.4081 C.ar    1  UNL1        0.1498
      2 C           1.7049   68.9951   67.7761 C.ar    1  UNL1        0.0389
      3 C           2.6304   69.6011   68.6800 C.ar    1  UNL1        0.0175
      4 C           3.9060   70.0229   68.2148 C.ar    1  UNL1        0.0484
      5 C           4.2825   69.8414   66.9239 C.ar    1  UNL1        0.0010
      6 C           3.3252   69.2394   66.0221 C.ar    1  UNL1        0.0349
      7 C           5.8549   70.2079   66.6911 C.3     1  UNL1        0.0909
      8 C           5.8893   69.5047   65.2965 C.3     1  UNL1        0.0123
      9 C           7.4042   70.5302   66.3708 C.3     1  UNL1        0.0739
     10 C           8.1477   71.2915   67.3867 C.3     1  UNL1        0.1491
     11 N           7.3432   71.1656   68.5729 N.4     1  UNL1        0.4809
     12 C           7.7509   69.9922   69.3656 C.3     1  UNL1        0.2116
     13 O           7.5370   72.2906   69.3081 O.3     1  UNL1       -0.1101
     14 C           5.9560   71.1220   68.0180 C.3     1  UNL1        0.1802
     15 N           4.9237   70.6496   68.9370 N.pl3   1  UNL1       -0.2650
     16 C           4.8782   70.9013   70.3649 C.3     1  UNL1        0.1174
     17 O           1.1774   68.2204   65.4848 O.3     1  UNL1       -0.4100
     18 N           2.0087   66.3142   64.2120 N.am    1  UNL1       -0.2499
     19 C           1.1713   66.8561   65.1745 C.2     1  UNL1        0.4099
     20 O           0.4273   66.1134   65.7934 O.2     1  UNL1       -0.2257
     21 H           1.9831   65.2938   64.0702 H       1  UNL1        0.1582
     22 C           4.3628   66.8042   63.3490 C.ar    1  UNL1       -0.0086
     23 C           5.2190   67.5415   62.4998 C.ar    1  UNL1       -0.0030
     24 C           4.7273   68.5316   61.6847 C.ar    1  UNL1       -0.0002
     25 C           3.3655   68.8000   61.6743 C.ar    1  UNL1        0.0013
     26 C           2.4803   68.0793   62.5050 C.ar    1  UNL1        0.0144
     27 C           2.9546   67.0849   63.3915 C.ar    1  UNL1        0.0492
     28 C           4.9384   65.6739   64.1195 C.3     1  UNL1        0.0276
     29 C           3.9945   63.5382   64.7177 C.3     1  UNL1        0.0004
     30 C           4.6012   64.2740   63.5900 C.3     1  UNL1        0.0047
@<TRIPOS>UNITY_ATOM_ATTR
11 1
charge 1
@<TRIPOS>BOND
     1    29    30    1
     2    30    28    1
     3    28    22    1
     4    22    23   ar
     5    22    27   ar
     6    23    24   ar
     7    24    25   ar
     8    25    26   ar
     9    26    27   ar
    10    27    18    1
    11    18    19   am
    12    18    21    1
    13    19    20    2
    14    19    17    1
    15    17     1    1
    16     1     2   ar
    17     1     6   ar
    18     2     3   ar
    19     3     4   ar
    20     4     5   ar
    21     4    15    1
    22     5     6   ar
    23     5     7    1
    24     7     8    1
    25     7     9    1
    26     7    14    1
    27     9    10    1
    28    10    11    1
    29    11    12    1
    30    11    13    1
    31    11    14    1
    32    14    15    1
    33    15    16    1
#	Name:			CHEMBL541350
#	Creating user name:	trannguyen
#	Creation time:		Tue Feb  8 17:54:08 2022


#	Modifying user name:	trannguyen
#	Modification time:	Tue Feb  8 17:54:08 2022

@<TRIPOS>MOLECULE
CHEMBL541350
 28 31 0 0 0
SMALL
GASTEIGER

@<TRIPOS>ATOM
      1 N           0.8425   59.5032   75.8915 N.pl3   1  UNL1       -0.3167
      2 H           0.5616   60.0863   75.0880 H       1  UNL1        0.1482
      3 C          -0.7227   55.6404   76.2446 C.ar    1  UNL1        0.1030
      4 C           0.3461   56.0405   77.0751 C.ar    1  UNL1        0.0238
      5 C           0.8772   57.3146   76.9409 C.ar    1  UNL1        0.0375
      6 C           0.3390   58.1824   76.0009 C.ar    1  UNL1        0.1503
      7 N          -0.6794   57.7549   75.2046 N.ar    1  UNL1       -0.1331
      8 N          -1.1800   56.5203   75.3128 N.ar    1  UNL1       -0.1468
      9 C          -1.5923   52.0849   74.3886 C.ar    1  UNL1        0.0000
     10 C          -2.1802   52.1157   78.0694 C.ar    1  UNL1        0.0000
     11 C          -1.0857   53.3829   77.4955 C.ar    1  UNL1        0.0016
     12 C          -1.3672   54.2881   76.3802 C.ar    1  UNL1        0.0194
     13 C          -2.3483   53.8124   75.5294 C.ar    1  UNL1        0.0016
     14 C          -3.2713   52.4546   76.4497 C.ar    1  UNL1        0.0000
     15 C           1.7880   60.0222   76.8505 C.3     1  UNL1        0.0883
     16 C           1.1105   61.0272   77.7909 C.3     1  UNL1        0.0226
     17 C          -0.1317   61.5868   77.1060 C.3     1  UNL1        0.0191
     18 C          -1.4196   61.3406   77.9174 C.3     1  UNL1        0.0724
     19 N          -2.0341   60.0141   77.6395 N.3     1  UNL1       -0.2687
     20 C          -3.4714   60.0795   77.2974 C.3     1  UNL1        0.0771
     21 C          -3.9450   58.7191   76.7904 C.3     1  UNL1        0.0434
     22 C          -3.5968   57.6306   77.7546 C.ar    1  UNL1       -0.0234
     23 C          -4.2769   56.4080   77.6849 C.ar    1  UNL1       -0.0045
     24 C          -3.9994   55.3978   78.6062 C.ar    1  UNL1       -0.0003
     25 C          -3.0397   55.6016   79.6004 C.ar    1  UNL1       -0.0003
     26 C          -2.3427   56.8117   79.6659 C.ar    1  UNL1       -0.0032
     27 C          -2.6048   57.8292   78.7358 C.ar    1  UNL1       -0.0101
     28 C          -1.8167   59.1173   78.8017 C.3     1  UNL1        0.0988
@<TRIPOS>BOND
     1     9    10   ar
     2     9    14   ar
     3    10    11   ar
     4    11    12   ar
     5    12     3    1
     6    12    13   ar
     7     3     4   ar
     8     3     8   ar
     9     4     5   ar
    10     5     6   ar
    11     6     1    1
    12     6     7   ar
    13     1    15    1
    14     1     2    1
    15    15    16    1
    16    16    17    1
    17    17    18    1
    18    18    19    1
    19    19    20    1
    20    19    28    1
    21    20    21    1
    22    21    22    1
    23    22    23   ar
    24    22    27   ar
    25    23    24   ar
    26    24    25   ar
    27    25    26   ar
    28    26    27   ar
    29    27    28    1
    30     7     8   ar
    31    13    14   ar
#	Name:			CHEMBL541613
#	Creating user name:	trannguyen
#	Creation time:		Tue Feb  8 17:54:08 2022


#	Modifying user name:	trannguyen
#	Modification time:	Tue Feb  8 17:54:08 2022

@<TRIPOS>MOLECULE
CHEMBL541613
 26 29 0 0 0
SMALL
GASTEIGER

@<TRIPOS>ATOM
      1 N          -0.6474   57.9054   75.4952 N.pl3   1  UNL1       -0.3155
      2 H          -0.4231   57.4696   74.5840 H       1  UNL1        0.1483
      3 C          -4.5744   58.9522   76.4762 C.ar    1  UNL1        0.1030
      4 C          -4.2927   57.6289   76.0693 C.ar    1  UNL1        0.0238
      5 C          -2.9898   57.2773   75.7322 C.ar    1  UNL1        0.0375
      6 C          -1.9861   58.2339   75.8172 C.ar    1  UNL1        0.1503
      7 N          -2.3011   59.4951   76.2194 N.ar    1  UNL1       -0.1331
      8 N          -3.5507   59.8435   76.5240 N.ar    1  UNL1       -0.1468
      9 C          -6.9326   60.8332   79.7130 C.ar    1  UNL1        0.0000
     10 C          -8.4705   60.5357   75.8430 C.ar    1  UNL1        0.0000
     11 C          -6.6802   60.3910   75.9903 C.ar    1  UNL1        0.0016
     12 C          -5.9648   59.4101   76.8036 C.ar    1  UNL1        0.0194
     13 C          -6.7608   58.9291   77.8553 C.ar    1  UNL1        0.0016
     14 C          -8.8745   59.1756   77.0486 C.ar    1  UNL1        0.0000
     15 C           0.4050   58.1930   76.4389 C.3     1  UNL1        0.1057
     16 C           1.4082   59.2314   75.8936 C.3     1  UNL1        0.0938
     17 N           1.7773   60.2524   76.9110 N.3     1  UNL1       -0.2672
     18 C           2.4311   59.6956   78.1144 C.3     1  UNL1        0.0771
     19 C           2.9880   60.8288   78.9729 C.3     1  UNL1        0.0434
     20 C           1.9359   61.8487   79.2701 C.ar    1  UNL1       -0.0234
     21 C           2.1118   62.7221   80.3512 C.ar    1  UNL1       -0.0045
     22 C           1.1201   63.6495   80.6717 C.ar    1  UNL1       -0.0003
     23 C          -0.0506   63.7129   79.9123 C.ar    1  UNL1       -0.0003
     24 C          -0.2265   62.8576   78.8208 C.ar    1  UNL1       -0.0032
     25 C           0.7692   61.9289   78.4832 C.ar    1  UNL1       -0.0101
     26 C           0.5722   61.0345   77.2815 C.3     1  UNL1        0.0989
@<TRIPOS>BOND
     1     9    10   ar
     2     9    14   ar
     3    10    11   ar
     4    11    12   ar
     5    12     3    1
     6    12    13   ar
     7     3     4   ar
     8     3     8   ar
     9     4     5   ar
    10     5     6   ar
    11     6     1    1
    12     6     7   ar
    13     1    15    1
    14     1     2    1
    15    15    16    1
    16    16    17    1
    17    17    18    1
    18    17    26    1
    19    18    19    1
    20    19    20    1
    21    20    21   ar
    22    20    25   ar
    23    21    22   ar
    24    22    23   ar
    25    23    24   ar
    26    24    25   ar
    27    25    26    1
    28     7     8   ar
    29    13    14   ar
#	Name:			CHEMBL541663
#	Creating user name:	trannguyen
#	Creation time:		Tue Feb  8 17:54:08 2022


#	Modifying user name:	trannguyen
#	Modification time:	Tue Feb  8 17:54:08 2022

@<TRIPOS>MOLECULE
CHEMBL541663
 27 30 0 0 0
SMALL
GASTEIGER

@<TRIPOS>ATOM
      1 C          -6.5390   55.9634   78.6703 C.3     1  UNL1        0.1174
      2 N          -3.9662   56.8942   76.3287 N.pl3   1  UNL1       -0.2650
      3 C          -4.2421   55.8703   77.8346 C.ar    1  UNL1        0.0484
      4 C          -3.2968   54.7241   78.1985 C.ar    1  UNL1        0.0175
      5 C          -2.0640   54.1786   77.7708 C.ar    1  UNL1        0.0389
      6 C          -1.3095   54.6712   76.4524 C.ar    1  UNL1        0.1498
      7 C          -1.5927   55.6886   75.0044 C.ar    1  UNL1        0.0349
      8 C          -3.0990   56.2904   76.2021 C.ar    1  UNL1        0.0010
      9 C          -3.8128   57.6237   75.8617 C.3     1  UNL1        0.0909
     10 C          -2.4263   58.0377   75.0543 C.3     1  UNL1        0.0123
     11 C          -4.2993   59.0107   75.2317 C.3     1  UNL1        0.0739
     12 C          -5.7030   59.3459   75.5338 C.3     1  UNL1        0.1491
     13 N          -6.0735   58.5269   76.6688 N.4     1  UNL1        0.4809
     14 C          -5.8351   59.2646   77.9231 C.3     1  UNL1        0.2116
     15 O          -7.3904   58.2435   76.5646 O.3     1  UNL1       -0.1101
     16 C          -5.4849   57.1991   76.9463 C.3     1  UNL1        0.1802
     17 O          -0.1177   54.1641   76.3044 O.3     1  UNL1       -0.4100
     18 C           0.8345   54.2895   77.3370 C.2     1  UNL1        0.4099
     19 O           1.0502   53.4936   78.1920 O.2     1  UNL1       -0.2257
     20 N           1.4430   55.4059   77.7142 N.am    1  UNL1       -0.2496
     21 H           2.0809   55.3762   78.4427 H       1  UNL1        0.1582
     22 C           1.3301   56.7977   77.4030 C.ar    1  UNL1        0.0532
     23 C           1.2979   57.4691   78.8689 C.ar    1  UNL1        0.0148
     24 C           1.2592   58.9260   79.0204 C.ar    1  UNL1        0.0013
     25 C           0.6817   59.6344   77.8273 C.ar    1  UNL1        0.0001
     26 C           0.3398   58.9118   76.9077 C.ar    1  UNL1        0.0013
     27 C          -0.6580   58.4453   78.2668 C.ar    1  UNL1        0.0148
@<TRIPOS>UNITY_ATOM_ATTR
13 1
charge 1
@<TRIPOS>BOND
     1     1     2    1
     2     2     3    1
     3     2    16    1
     4     3     4   ar
     5     3     8   ar
     6     4     5   ar
     7     5     6   ar
     8     6    17    1
     9     6     7   ar
    10    17    18    1
    11    18    19    2
    12    18    20   am
    13    20    22    1
    14    20    21    1
    15    22    23   ar
    16    22    27   ar
    17    23    24   ar
    18    24    25   ar
    19    25    26   ar
    20    26    27   ar
    21     7     8   ar
    22     8     9    1
    23     9    10    1
    24     9    11    1
    25     9    16    1
    26    11    12    1
    27    12    13    1
    28    13    14    1
    29    13    15    1
    30    13    16    1
#	Name:			CHEMBL543711
#	Creating user name:	trannguyen
#	Creation time:		Tue Feb  8 17:54:08 2022


#	Modifying user name:	trannguyen
#	Modification time:	Tue Feb  8 17:54:08 2022

@<TRIPOS>MOLECULE
CHEMBL543711
 29 32 0 0 0
SMALL
GASTEIGER

@<TRIPOS>ATOM
      1 C           6.0165   68.3552   62.4508 C.3     1  UNL1        0.0882
      2 N           5.8858   69.6949   62.9708 N.pl3   1  UNL1       -0.3167
      3 H           5.8338   70.5019   62.3273 H       1  UNL1        0.1482
      4 C           5.5452   70.2910   67.0803 C.ar    1  UNL1        0.1030
      5 C           4.5310   69.5911   66.3981 C.ar    1  UNL1        0.0238
      6 C           4.6345   69.4038   65.0288 C.ar    1  UNL1        0.0375
      7 C           5.7426   69.9045   64.3563 C.ar    1  UNL1        0.1503
      8 N           6.7031   70.5691   65.0512 N.ar    1  UNL1       -0.1331
      9 N           6.6037   70.7602   66.3623 N.ar    1  UNL1       -0.1468
     10 C           1.9093   67.7617   69.5032 C.ar    1  UNL1        0.0000
     11 C           6.5042   70.6836   70.7500 C.ar    1  UNL1        0.0000
     12 C           6.6150   70.4623   69.3773 C.ar    1  UNL1        0.0016
     13 C           5.4841   70.5804   68.5407 C.ar    1  UNL1        0.0194
     14 C           4.2499   70.9447   69.1219 C.ar    1  UNL1        0.0016
     15 C           4.1495   71.1610   70.4969 C.ar    1  UNL1        0.0000
     16 C           4.8673   68.0581   61.5177 C.3     1  UNL1        0.0213
     17 C           3.9399   69.2627   61.3896 C.3     1  UNL1        0.0032
     18 C           2.5170   68.7448   61.4441 C.3     1  UNL1        0.0174
     19 C           1.9484   68.6715   62.8694 C.3     1  UNL1        0.0724
     20 N           2.1692   67.3618   63.5507 N.3     1  UNL1       -0.2687
     21 C           2.2337   67.5489   65.0070 C.3     1  UNL1        0.0771
     22 C           2.1462   66.1999   65.7278 C.3     1  UNL1        0.0434
     23 C           3.0942   65.1859   65.1417 C.ar    1  UNL1       -0.0234
     24 C           3.4026   64.0178   65.8544 C.ar    1  UNL1       -0.0045
     25 C           4.3036   63.0863   65.3248 C.ar    1  UNL1       -0.0003
     26 C           4.8975   63.3118   64.0812 C.ar    1  UNL1       -0.0003
     27 C           4.5900   64.4645   63.3630 C.ar    1  UNL1       -0.0032
     28 C           3.6824   65.3982   63.8825 C.ar    1  UNL1       -0.0101
     29 C           3.3571   66.6103   63.0695 C.3     1  UNL1        0.0988
@<TRIPOS>BOND
     1    10    11   ar
     2    10    15   ar
     3    11    12   ar
     4    12    13   ar
     5    13     4    1
     6    13    14   ar
     7     4     5   ar
     8     4     9   ar
     9     5     6   ar
    10     6     7   ar
    11     7     2    1
    12     7     8   ar
    13     2     1    1
    14     2     3    1
    15     1    16    1
    16    16    17    1
    17    17    18    1
    18    18    19    1
    19    19    20    1
    20    20    21    1
    21    20    29    1
    22    21    22    1
    23    22    23    1
    24    23    24   ar
    25    23    28   ar
    26    24    25   ar
    27    25    26   ar
    28    26    27   ar
    29    27    28   ar
    30    28    29    1
    31     8     9   ar
    32    14    15   ar
#	Name:			CHEMBL544887
#	Creating user name:	trannguyen
#	Creation time:		Tue Feb  8 17:54:08 2022


#	Modifying user name:	trannguyen
#	Modification time:	Tue Feb  8 17:54:08 2022

@<TRIPOS>MOLECULE
CHEMBL544887
 22 24 0 0 0
SMALL
GASTEIGER

@<TRIPOS>ATOM
      1 C           4.9818   69.8012   66.1024 C.ar    1  UNL1        0.1030
      2 C           3.6376   69.4227   65.9422 C.ar    1  UNL1        0.0238
      3 C           3.1764   69.0631   64.6850 C.ar    1  UNL1        0.0375
      4 C           4.0494   69.0831   63.6014 C.ar    1  UNL1        0.1503
      5 N           5.3376   69.4701   63.7886 N.ar    1  UNL1       -0.1331
      6 N           5.7863   69.8181   65.0001 N.ar    1  UNL1       -0.1468
      7 C           6.5570   70.8925   69.9699 C.ar    1  UNL1        0.0000
      8 C           7.4235   70.7772   68.8842 C.ar    1  UNL1        0.0000
      9 C           6.9303   70.4380   67.6222 C.ar    1  UNL1        0.0016
     10 C           5.5476   70.2057   67.4296 C.ar    1  UNL1        0.0194
     11 C           4.6849   70.3407   68.5380 C.ar    1  UNL1        0.0016
     12 C           5.1900   70.6783   69.7966 C.ar    1  UNL1        0.0000
     13 N           3.5861   68.6701   62.3253 N.pl3   1  UNL1       -0.3155
     14 H           2.8552   69.2389   61.8701 H       1  UNL1        0.1483
     15 C           4.1124   67.5062   61.6378 C.3     1  UNL1        0.1057
     16 C           4.5517   66.4694   62.6897 C.3     1  UNL1        0.0937
     17 N           3.5933   65.3950   63.0611 N.3     1  UNL1       -0.2670
     18 C           4.2421   64.1306   63.4461 C.3     1  UNL1        0.1047
     19 C           4.6367   64.1871   64.9194 C.3     1  UNL1        0.1595
     20 O           3.4733   64.3175   65.7162 O.3     1  UNL1       -0.3508
     21 C           2.8342   65.5535   65.4472 C.3     1  UNL1        0.1595
     22 C           2.4546   65.6958   63.9531 C.3     1  UNL1        0.1047
@<TRIPOS>BOND
     1     7     8   ar
     2     7    12   ar
     3     8     9   ar
     4     9    10   ar
     5    10     1    1
     6    10    11   ar
     7     1     2   ar
     8     1     6   ar
     9     2     3   ar
    10     3     4   ar
    11     4    13    1
    12     4     5   ar
    13    13    15    1
    14    13    14    1
    15    15    16    1
    16    16    17    1
    17    17    18    1
    18    17    22    1
    19    18    19    1
    20    19    20    1
    21    20    21    1
    22    21    22    1
    23     5     6   ar
    24    11    12   ar
#	Name:			CHEMBL545126
#	Creating user name:	trannguyen
#	Creation time:		Tue Feb  8 17:54:08 2022


#	Modifying user name:	trannguyen
#	Modification time:	Tue Feb  8 17:54:08 2022

@<TRIPOS>MOLECULE
CHEMBL545126
 27 29 0 0 0
SMALL
GASTEIGER

@<TRIPOS>ATOM
      1 N           2.1228   59.5578   76.1598 N.pl3   1  UNL1       -0.3167
      2 H           3.0722   59.3453   75.8155 H       1  UNL1        0.1482
      3 C           1.2186   58.4837   76.3737 C.ar    1  UNL1        0.1503
      4 C           1.3099   57.6653   77.5073 C.ar    1  UNL1        0.0375
      5 C           0.4375   56.6000   77.6473 C.ar    1  UNL1        0.0238
      6 C          -0.5349   56.3725   76.6636 C.ar    1  UNL1        0.1030
      7 N          -0.6104   57.2263   75.6058 N.ar    1  UNL1       -0.1468
      8 N           0.2463   58.2400   75.4586 N.ar    1  UNL1       -0.1331
      9 C          -1.4384   55.1942   76.7105 C.ar    1  UNL1        0.0194
     10 C          -2.0298   54.6825   75.5363 C.ar    1  UNL1        0.0016
     11 C          -2.9361   53.6251   75.6056 C.ar    1  UNL1        0.0000
     12 C          -3.2521   53.0522   76.8373 C.ar    1  UNL1        0.0000
     13 C          -2.6615   53.5368   78.0061 C.ar    1  UNL1        0.0000
     14 C          -1.7658   54.6079   77.9479 C.ar    1  UNL1        0.0016
     15 C           1.7183   60.9320   76.3589 C.3     1  UNL1        0.0883
     16 C           1.7891   61.3185   77.8268 C.3     1  UNL1        0.0226
     17 C           0.4286   61.8462   78.2851 C.3     1  UNL1        0.0191
     18 C          -0.5619   61.8027   77.1235 C.3     1  UNL1        0.0725
     19 C          -2.5486   62.3785   78.4219 C.3     1  UNL1        0.0899
     20 N          -1.9189   61.3787   77.5363 N.3     1  UNL1       -0.2678
     21 C          -1.9523   60.0483   78.1993 C.3     1  UNL1        0.0992
     22 C          -2.9205   59.0798   77.5455 C.ar    1  UNL1       -0.0061
     23 C          -3.5018   58.0368   78.2930 C.ar    1  UNL1       -0.0029
     24 C          -4.3439   57.1097   77.6790 C.ar    1  UNL1       -0.0003
     25 C          -4.6362   57.2253   76.3193 C.ar    1  UNL1       -0.0000
     26 C          -4.0950   58.2772   75.5744 C.ar    1  UNL1       -0.0003
     27 C          -3.2418   59.2045   76.1829 C.ar    1  UNL1       -0.0029
@<TRIPOS>BOND
     1    19    20    1
     2    20    18    1
     3    20    21    1
     4    18    17    1
     5    17    16    1
     6    16    15    1
     7    15     1    1
     8     1     3    1
     9     1     2    1
    10     3     4   ar
    11     3     8   ar
    12     4     5   ar
    13     5     6   ar
    14     6     9    1
    15     6     7   ar
    16     9    10   ar
    17     9    14   ar
    18    10    11   ar
    19    11    12   ar
    20    12    13   ar
    21    13    14   ar
    22     7     8   ar
    23    21    22    1
    24    22    23   ar
    25    22    27   ar
    26    23    24   ar
    27    24    25   ar
    28    25    26   ar
    29    26    27   ar
#	Name:			CHEMBL545585
#	Creating user name:	trannguyen
#	Creation time:		Tue Feb  8 17:54:08 2022


#	Modifying user name:	trannguyen
#	Modification time:	Tue Feb  8 17:54:08 2022

@<TRIPOS>MOLECULE
CHEMBL545585
 26 28 0 0 0
SMALL
GASTEIGER

@<TRIPOS>ATOM
      1 N           1.8056   54.4504   77.7420 N.pl3   1  UNL1       -0.3167
      2 H           2.7276   54.2457   77.3235 H       1  UNL1        0.1482
      3 C           1.3173   55.7724   77.6902 C.ar    1  UNL1        0.1503
      4 C           0.2947   56.1531   78.5486 C.ar    1  UNL1        0.0375
      5 C          -0.1426   57.4625   78.5340 C.ar    1  UNL1        0.0238
      6 C           0.4260   58.3663   77.6298 C.ar    1  UNL1        0.1030
      7 N           1.3961   57.9351   76.7784 N.ar    1  UNL1       -0.1468
      8 N           1.8481   56.6783   76.8251 N.ar    1  UNL1       -0.1331
      9 C          -0.0579   59.7574   77.5675 C.ar    1  UNL1        0.0194
     10 C          -1.2344   60.1344   78.2416 C.ar    1  UNL1        0.0016
     11 C          -1.7151   61.4378   78.1412 C.ar    1  UNL1        0.0000
     12 C          -1.0406   62.3718   77.3533 C.ar    1  UNL1        0.0000
     13 C           0.1345   62.0096   76.6874 C.ar    1  UNL1        0.0000
     14 C           0.6364   60.7109   76.8063 C.ar    1  UNL1        0.0016
     15 C           1.0052   53.3781   78.2795 C.3     1  UNL1        0.0897
     16 C           0.2239   52.7427   77.1465 C.3     1  UNL1        0.0385
     17 C          -1.2812   52.8106   77.3664 C.3     1  UNL1        0.0742
     18 C          -1.8886   52.0925   75.1242 C.3     1  UNL1        0.0899
     19 N          -1.9289   53.2077   76.0963 N.3     1  UNL1       -0.2677
     20 C          -1.3647   54.4499   75.5306 C.3     1  UNL1        0.0992
     21 C          -2.1709   55.7092   75.8276 C.ar    1  UNL1       -0.0061
     22 C          -3.2571   55.7550   76.7347 C.ar    1  UNL1       -0.0029
     23 C          -3.9218   56.9604   76.9811 C.ar    1  UNL1       -0.0003
     24 C          -3.5434   58.1214   76.3070 C.ar    1  UNL1       -0.0000
     25 C          -2.4977   58.0822   75.3843 C.ar    1  UNL1       -0.0003
     26 C          -1.8109   56.8876   75.1517 C.ar    1  UNL1       -0.0029
@<TRIPOS>BOND
     1    18    19    1
     2    19    17    1
     3    19    20    1
     4    17    16    1
     5    16    15    1
     6    15     1    1
     7     1     3    1
     8     1     2    1
     9     3     4   ar
    10     3     8   ar
    11     4     5   ar
    12     5     6   ar
    13     6     9    1
    14     6     7   ar
    15     9    10   ar
    16     9    14   ar
    17    10    11   ar
    18    11    12   ar
    19    12    13   ar
    20    13    14   ar
    21     7     8   ar
    22    20    21    1
    23    21    22   ar
    24    21    26   ar
    25    22    23   ar
    26    23    24   ar
    27    24    25   ar
    28    25    26   ar
#	Name:			CHEMBL554861
#	Creating user name:	trannguyen
#	Creation time:		Tue Feb  8 17:54:08 2022


#	Modifying user name:	trannguyen
#	Modification time:	Tue Feb  8 17:54:08 2022

@<TRIPOS>MOLECULE
CHEMBL554861
 28 31 0 0 0
SMALL
GASTEIGER

@<TRIPOS>ATOM
      1 C          -2.4993   54.9235   75.5036 C.3     1  UNL1        0.0883
      2 N          -4.5515   59.5857   77.2688 N.3     1  UNL1       -0.2690
      3 C          -2.2656   59.2962   77.9095 C.3     1  UNL1        0.0724
      4 C          -2.5661   57.6952   79.0833 C.3     1  UNL1        0.0191
      5 C          -3.9084   55.4903   77.9917 C.3     1  UNL1        0.0223
      6 C          -5.6785   56.7651   77.7703 C.3     1  UNL1        0.0191
      7 C          -5.5577   58.1654   76.6584 C.3     1  UNL1        0.0724
      8 C          -5.2801   60.2611   77.7598 C.3     1  UNL1        0.0991
      9 C          -6.4308   67.1587   78.1994 C.ar    1  UNL1       -0.0000
     10 C          -7.8156   64.1168   77.7406 C.ar    1  UNL1       -0.0003
     11 C          -7.8752   61.2397   78.0094 C.ar    1  UNL1       -0.0029
     12 C          -5.7479   60.6990   78.5759 C.ar    1  UNL1       -0.0061
     13 C          -4.4230   62.2992   78.8837 C.ar    1  UNL1       -0.0029
     14 C          -5.0465   63.6426   79.3547 C.ar    1  UNL1       -0.0003
     15 N          -1.8533   53.9927   76.3430 N.pl3   1  UNL1       -0.3167
     16 H          -1.8032   52.5778   75.7975 H       1  UNL1        0.1482
     17 C          -0.9591   55.0802   75.9175 C.ar    1  UNL1        0.1503
     18 C           0.4175   54.9809   77.8323 C.ar    1  UNL1        0.0375
     19 C           0.4801   55.7965   78.5554 C.ar    1  UNL1        0.0238
     20 C           0.6494   57.1707   77.4158 C.ar    1  UNL1        0.1030
     21 N           0.2806   56.8209   76.2585 N.ar    1  UNL1       -0.1468
     22 N          -0.7450   56.1270   76.2305 N.ar    1  UNL1       -0.1331
     23 C           1.6835   58.4626   77.7591 C.ar    1  UNL1        0.0194
     24 C           2.5671   58.7739   78.9950 C.ar    1  UNL1        0.0016
     25 C           3.1038   59.9370   79.1232 C.ar    1  UNL1        0.0000
     26 C           2.9186   60.8204   78.1727 C.ar    1  UNL1        0.0000
     27 C           2.1860   60.5110   77.0619 C.ar    1  UNL1        0.0000
     28 C           1.5905   59.3187   76.9031 C.ar    1  UNL1        0.0016
@<TRIPOS>BOND
     1     9    10   ar
     2     9    14   ar
     3    10    11   ar
     4    11    12   ar
     5    12     8    1
     6    12    13   ar
     7     8     2    1
     8     2     3    1
     9     2     7    1
    10     3     4    1
    11     4     5    1
    12     5     1    1
    13     5     6    1
    14     1    15    1
    15    15    17    1
    16    15    16    1
    17    17    18   ar
    18    17    22   ar
    19    18    19   ar
    20    19    20   ar
    21    20    23    1
    22    20    21   ar
    23    23    24   ar
    24    23    28   ar
    25    24    25   ar
    26    25    26   ar
    27    26    27   ar
    28    27    28   ar
    29    21    22   ar
    30     6     7    1
    31    13    14   ar
#	Name:			CHEMBL556144
#	Creating user name:	trannguyen
#	Creation time:		Tue Feb  8 17:54:08 2022


#	Modifying user name:	trannguyen
#	Modification time:	Tue Feb  8 17:54:08 2022

@<TRIPOS>MOLECULE
CHEMBL556144
 23 25 0 0 0
SMALL
GASTEIGER

@<TRIPOS>ATOM
      1 C           4.6082   69.8431   66.2290 C.ar    1  UNL1        0.1030
      2 C           5.2289   69.7830   64.9675 C.ar    1  UNL1        0.0238
      3 C           4.4936   69.3662   63.8699 C.ar    1  UNL1        0.0375
      4 C           3.1553   69.0165   64.0370 C.ar    1  UNL1        0.1503
      5 N           2.5908   69.1017   65.2658 N.ar    1  UNL1       -0.1331
      6 N           3.2935   69.4914   66.3239 N.ar    1  UNL1       -0.1468
      7 C           6.6436   70.8295   69.8856 C.ar    1  UNL1        0.0000
      8 C           7.3791   70.7120   68.7024 C.ar    1  UNL1        0.0000
      9 C           6.7343   70.4124   67.5010 C.ar    1  UNL1        0.0016
     10 C           5.3349   70.2265   67.4706 C.ar    1  UNL1        0.0194
     11 C           4.6084   70.3686   68.6718 C.ar    1  UNL1        0.0016
     12 C           5.2634   70.6667   69.8656 C.ar    1  UNL1        0.0000
     13 N           2.3914   68.6225   62.9235 N.pl3   1  UNL1       -0.3167
     14 H           1.3693   68.5200   63.0429 H       1  UNL1        0.1482
     15 C           3.0078   68.2909   61.6542 C.3     1  UNL1        0.0897
     16 C           4.2811   67.5306   61.9602 C.3     1  UNL1        0.0385
     17 C           4.1057   66.0556   62.3152 C.3     1  UNL1        0.0740
     18 N           4.6545   65.6923   63.6518 N.3     1  UNL1       -0.2684
     19 C           3.8084   66.0456   64.8062 C.3     1  UNL1        0.1046
     20 C           2.7606   64.9604   65.0840 C.3     1  UNL1        0.1595
     21 O           3.3885   63.7144   65.3351 O.3     1  UNL1       -0.3508
     22 C           4.1261   63.2959   64.2010 C.3     1  UNL1        0.1595
     23 C           5.2166   64.3327   63.8207 C.3     1  UNL1        0.1046
@<TRIPOS>BOND
     1     7     8   ar
     2     7    12   ar
     3     8     9   ar
     4     9    10   ar
     5    10     1    1
     6    10    11   ar
     7     1     2   ar
     8     1     6   ar
     9     2     3   ar
    10     3     4   ar
    11     4    13    1
    12     4     5   ar
    13    13    15    1
    14    13    14    1
    15    15    16    1
    16    16    17    1
    17    17    18    1
    18    18    19    1
    19    18    23    1
    20    19    20    1
    21    20    21    1
    22    21    22    1
    23    22    23    1
    24     5     6   ar
    25    11    12   ar
#	Name:			CHEMBL556603
#	Creating user name:	trannguyen
#	Creation time:		Tue Feb  8 17:54:08 2022


#	Modifying user name:	trannguyen
#	Modification time:	Tue Feb  8 17:54:08 2022

@<TRIPOS>MOLECULE
CHEMBL556603
 28 31 0 0 0
SMALL
GASTEIGER

@<TRIPOS>ATOM
      1 C           4.0529   68.7891   63.5909 C.ar    1  UNL1        0.1498
      2 C           5.2970   69.4100   63.3336 C.ar    1  UNL1        0.0389
      3 C           6.0840   69.9687   64.4102 C.ar    1  UNL1        0.0175
      4 C           5.4800   69.9460   65.7221 C.ar    1  UNL1        0.0484
      5 C           4.2740   69.3809   65.9678 C.ar    1  UNL1        0.0010
      6 C           3.6422   68.6901   64.9123 C.ar    1  UNL1        0.0349
      7 C           3.6474   69.7695   67.3924 C.3     1  UNL1        0.0909
      8 C           2.1267   69.5232   66.9058 C.3     1  UNL1        0.0123
      9 C           2.9852   70.1463   68.7836 C.3     1  UNL1        0.0739
     10 C           3.9064   70.5607   69.8595 C.3     1  UNL1        0.1491
     11 N           5.1523   70.8792   69.1995 N.4     1  UNL1        0.4809
     12 C           5.2414   72.3203   68.9068 C.3     1  UNL1        0.2116
     13 O           6.1592   70.5476   70.0511 O.3     1  UNL1       -0.1101
     14 C           5.1529   69.9829   68.0140 C.3     1  UNL1        0.1802
     15 N           6.0154   70.4221   66.9084 N.pl3   1  UNL1       -0.2650
     16 C           7.3425   71.0110   67.0127 C.3     1  UNL1        0.1174
     17 O           3.1919   68.3436   62.5969 O.3     1  UNL1       -0.4100
     18 N           4.0941   66.2855   61.6889 N.am    1  UNL1       -0.2496
     19 C           3.6498   67.5697   61.5236 C.2     1  UNL1        0.4099
     20 O           3.7023   68.0650   60.4102 O.2     1  UNL1       -0.2257
     21 H           4.4742   65.8031   60.8603 H       1  UNL1        0.1582
     22 C           3.6948   63.2026   66.6394 C.3     1  UNL1        0.0310
     23 C           3.8773   64.0804   65.4023 C.ar    1  UNL1       -0.0218
     24 C           2.9452   65.0836   65.0819 C.ar    1  UNL1       -0.0030
     25 C           3.0448   65.8074   63.8763 C.ar    1  UNL1        0.0144
     26 C           4.0895   65.5698   62.9644 C.ar    1  UNL1        0.0532
     27 C           5.0530   64.5754   63.3236 C.ar    1  UNL1        0.0144
     28 C           4.9438   63.8548   64.5224 C.ar    1  UNL1       -0.0030
@<TRIPOS>UNITY_ATOM_ATTR
11 1
charge 1
@<TRIPOS>BOND
     1    22    23    1
     2    23    24   ar
     3    23    28   ar
     4    24    25   ar
     5    25    26   ar
     6    26    18    1
     7    26    27   ar
     8    18    19   am
     9    18    21    1
    10    19    20    2
    11    19    17    1
    12    17     1    1
    13     1     2   ar
    14     1     6   ar
    15     2     3   ar
    16     3     4   ar
    17     4     5   ar
    18     4    15    1
    19     5     6   ar
    20     5     7    1
    21     7     8    1
    22     7     9    1
    23     7    14    1
    24     9    10    1
    25    10    11    1
    26    11    12    1
    27    11    13    1
    28    11    14    1
    29    14    15    1
    30    15    16    1
    31    27    28   ar
#	Name:			CHEMBL558409
#	Creating user name:	trannguyen
#	Creation time:		Tue Feb  8 17:54:08 2022


#	Modifying user name:	trannguyen
#	Modification time:	Tue Feb  8 17:54:08 2022

@<TRIPOS>MOLECULE
CHEMBL558409
 30 33 0 0 0
SMALL
GASTEIGER

@<TRIPOS>ATOM
      1 C           4.9150   69.2477   63.3474 C.ar    1  UNL1        0.1498
      2 C           6.1654   69.8954   63.5162 C.ar    1  UNL1        0.0389
      3 C           6.5727   70.3421   64.8190 C.ar    1  UNL1        0.0175
      4 C           5.7061   70.1693   65.9405 C.ar    1  UNL1        0.0484
      5 C           4.4828   69.6096   65.8133 C.ar    1  UNL1        0.0010
      6 C           4.1238   69.1309   64.5055 C.ar    1  UNL1        0.0349
      7 C           3.5953   69.6828   67.1926 C.3     1  UNL1        0.0909
      8 C           2.2633   69.3705   66.4359 C.3     1  UNL1        0.0123
      9 C           2.6348   69.7012   68.4851 C.3     1  UNL1        0.0739
     10 C           3.3084   70.0435   69.7567 C.3     1  UNL1        0.1491
     11 N           4.5549   70.6519   69.3524 N.4     1  UNL1        0.4809
     12 C           4.3851   72.1054   69.1689 C.3     1  UNL1        0.2116
     13 O           5.4575   70.4261   70.3420 O.3     1  UNL1       -0.1101
     14 C           4.9061   69.8890   68.1197 C.3     1  UNL1        0.1802
     15 N           5.9411   70.4957   67.2743 N.pl3   1  UNL1       -0.2650
     16 C           7.0706   71.2883   67.7231 C.3     1  UNL1        0.1174
     17 O           4.4277   68.7631   62.1074 O.3     1  UNL1       -0.4100
     18 N           2.5534   67.1712   62.5017 N.am    1  UNL1       -0.2499
     19 C           3.0952   68.3560   61.9587 C.2     1  UNL1        0.4099
     20 O           2.3949   69.0787   61.3018 O.2     1  UNL1       -0.2257
     21 H           1.5444   67.0217   62.3442 H       1  UNL1        0.1582
     22 C           2.8299   65.6906   64.6846 C.ar    1  UNL1       -0.0089
     23 C           3.4612   64.6506   65.3732 C.ar    1  UNL1       -0.0031
     24 C           4.5388   64.0175   64.8350 C.ar    1  UNL1       -0.0002
     25 C           4.9853   64.3853   63.5700 C.ar    1  UNL1        0.0013
     26 C           4.3296   65.3967   62.8171 C.ar    1  UNL1        0.0144
     27 C           3.2349   66.1235   63.3485 C.ar    1  UNL1        0.0492
     28 C           0.5914   65.9479   64.5064 C.3     1  UNL1        0.0047
     29 C           1.8102   66.3508   65.4576 C.3     1  UNL1        0.0236
     30 C           2.4261   66.2642   66.8861 C.3     1  UNL1        0.0047
@<TRIPOS>UNITY_ATOM_ATTR
11 1
charge 1
@<TRIPOS>BOND
     1    28    29    1
     2    29    30    1
     3    29    22    1
     4    22    23   ar
     5    22    27   ar
     6    23    24   ar
     7    24    25   ar
     8    25    26   ar
     9    26    27   ar
    10    27    18    1
    11    18    19   am
    12    18    21    1
    13    19    20    2
    14    19    17    1
    15    17     1    1
    16     1     2   ar
    17     1     6   ar
    18     2     3   ar
    19     3     4   ar
    20     4     5   ar
    21     4    15    1
    22     5     6   ar
    23     5     7    1
    24     7     8    1
    25     7     9    1
    26     7    14    1
    27     9    10    1
    28    10    11    1
    29    11    12    1
    30    11    13    1
    31    11    14    1
    32    14    15    1
    33    15    16    1
#	Name:			CHEMBL686
#	Creating user name:	trannguyen
#	Creation time:		Tue Feb  8 17:54:08 2022


#	Modifying user name:	trannguyen
#	Modification time:	Tue Feb  8 17:54:08 2022

@<TRIPOS>MOLECULE
CHEMBL686
 20 21 0 0 0
SMALL
GASTEIGER

@<TRIPOS>ATOM
      1 N           3.9486   69.4397   65.3813 N.pl3   1  UNL1       -0.3126
      2 H           3.2023   70.0038   64.9699 H       1  UNL1        0.1522
      3 C           7.0965   71.0308   68.9975 C.3     1  UNL1        0.0307
      4 C           5.7384   70.6123   68.4910 C.ar    1  UNL1       -0.0246
      5 C           4.6596   70.6608   69.3843 C.ar    1  UNL1       -0.0045
      6 C           3.3890   70.2787   68.9776 C.ar    1  UNL1        0.0009
      7 C           3.1729   69.8787   67.6617 C.ar    1  UNL1        0.0143
      8 C           4.2088   69.8816   66.7124 C.ar    1  UNL1        0.0440
      9 C           5.5279   70.1801   67.1525 C.ar    1  UNL1       -0.0124
     10 C           6.7197   70.1006   66.2252 C.3     1  UNL1        0.0320
     11 C           3.7794   68.1066   64.9000 C.ar    1  UNL1        0.0546
     12 C           2.8289   67.2343   65.4551 C.ar    1  UNL1        0.0148
     13 C           2.6045   65.9656   64.9089 C.ar    1  UNL1        0.0013
     14 C           3.2899   65.5615   63.7667 C.ar    1  UNL1        0.0003
     15 C           4.2156   66.4187   63.1805 C.ar    1  UNL1        0.0077
     16 C           4.4765   67.6794   63.7468 C.ar    1  UNL1        0.0888
     17 C           5.5241   68.5050   63.0775 C.2     1  UNL1        0.3392
     18 O           5.5983   69.7080   63.2058 O.2     1  UNL1       -0.2450
     19 O           6.3088   67.7954   62.2433 O.3     1  UNL1       -0.4771
     20 H           6.1555   66.8206   62.2942 H       1  UNL1        0.2954
@<TRIPOS>BOND
     1     3     4    1
     2     4     5   ar
     3     4     9   ar
     4     5     6   ar
     5     6     7   ar
     6     7     8   ar
     7     8     1    1
     8     8     9   ar
     9     1    11    1
    10     1     2    1
    11    11    12   ar
    12    11    16   ar
    13    12    13   ar
    14    13    14   ar
    15    14    15   ar
    16    15    16   ar
    17    16    17    1
    18    17    18    2
    19    17    19    1
    20    19    20    1
    21     9    10    1
